Compiled from "StreamReader.scala"
public class scala.util.parsing.input.StreamReader extends scala.util.parsing.input.PagedSeqReader implements scala.ScalaObject
  SourceFile: "StreamReader.scala"
  ScalaSig: length = 0x26B
   05 00 65 07 05 01 02 FFFFFF88 02 0B 01 0C 53 74 72 65
   61 6D 52 65 61 64 65 72 0A 02 03 04 01 05 69 6E
   70 75 74 0A 02 05 06 01 07 70 61 72 73 69 6E 67
   0A 02 07 08 01 04 75 74 69 6C 0A 01 09 01 05 73
   63 61 6C 61 03 00 10 02 0C 0D 0D 01 02 06 08 0E
   02 FFFFFF84 FFFFFF80 FFFFFF80 FFFFFF88 02 0F 02 0C 53 74 72 65 61 6D 52
   65 61 64 65 72 13 03 0D 10 18 10 02 11 16 0D 01
   12 0A 02 13 14 01 04 6C 61 6E 67 0A 01 15 01 04
   6A 61 76 61 09 02 17 12 02 06 4F 62 6A 65 63 74
   10 02 19 1A 0D 01 08 09 02 1B 08 02 0B 53 63 61
   6C 61 4F 62 6A 65 63 74 08 05 1D 0D FFFFFF84 00 1E 01
   06 3C 69 6E 69 74 3E 14 01 0B 08 07 20 0D FFFFFFC2 FFFFFF80
   FFFFFF84 02 21 01 05 45 6F 66 43 68 15 01 22 0F 01 23
   1C 01 1A 08 06 25 0D FFFFFFA0 FFFFFF80 06 22 01 06 45 6F 66
   43 68 20 08 05 27 0D FFFFFF84 00 28 01 05 61 70 70 6C
   79 14 02 29 5D 10 02 0C 2A 06 08 0E 02 FFFFFF84 FFFFFF80 FFFFFF80
   FFFFFF80 10 2B 13 03 2A 2C 18 10 02 0C 2D 09 02 2E 02
   02 0E 50 61 67 65 64 53 65 71 52 65 61 64 65 72
   08 08 30 2A FFFFFF82 FFFFFF80 FFFFFFA0 FFFFFF80 04 31 01 03 73 65 71 10
   03 32 37 39 0D 01 33 0A 02 34 35 01 09 69 6D 6D
   75 74 61 62 6C 65 0A 02 36 08 01 0A 63 6F 6C 6C
   65 63 74 69 6F 6E 09 02 38 33 02 08 50 61 67 65
   64 53 65 71 10 02 19 3A 09 02 3B 08 02 04 43 68
   61 72 08 09 3D 2A FFFFFF82 FFFFFF80 FFFFFFA0 FFFFFF80 04 3E 41 01 03 6F
   66 66 10 02 19 3F 09 02 40 08 02 03 49 6E 74 09
   02 42 2D 01 06 6F 66 66 73 65 74 08 08 44 2A FFFFFF82
   FFFFFF80 FFFFFFA0 FFFFFF80 04 3E 01 04 6C 6E 75 6D 08 05 1D 2A FFFFFF84
   00 46 14 04 29 47 48 49 08 05 30 45 FFFFFFC0 00 31 08
   05 3D 45 FFFFFFC0 00 3E 08 05 44 45 FFFFFFC0 00 3E 08 05 4B
   2A FFFFFF84 20 4C 01 04 72 65 73 74 15 01 29 08 05 4E
   2A FFFFFF84 04 4F 01 07 6E 65 78 74 45 6F 6C 15 01 3E
   08 05 51 2A FFFFFF84 20 52 01 04 64 72 6F 70 14 02 29
   53 08 05 54 50 FFFFFFC0 00 3E 01 01 6E 08 05 56 2A FFFFFF84
   20 57 01 03 70 6F 73 15 01 58 10 02 0C 59 09 02
   5A 02 02 08 50 6F 73 69 74 69 6F 6E 08 09 5C 2A
   FFFFFF81 FFFFFF80 FFFFFF80 FFFFFF84 04 4F 41 01 0C 73 75 70 65 72 24 6F
   66 66 73 65 74 08 05 5E 26 FFFFFFC0 00 5F 01 02 69 6E
   10 02 60 63 0D 01 61 0A 02 62 14 01 02 69 6F 09
   02 64 61 02 06 52 65 61 64 65 72 
  InnerClass: 
   public final #98= #60 of #26; //$anon$1=class scala/util/parsing/input/StreamReader$$anon$1 of class scala/util/parsing/input/StreamReader
  minor version: 0
  major version: 49
  Constant pool:
const #1 = Asciz	SourceFile;
const #2 = Asciz	StreamReader.scala;
const #3 = Asciz	apply;
const #4 = Asciz	(Ljava/io/Reader;)Lscala/util/parsing/input/StreamReader;;
const #5 = Asciz	Code;
const #6 = Asciz	scala/util/parsing/input/StreamReader$;
const #7 = class	#6;	//  scala/util/parsing/input/StreamReader$
const #8 = Asciz	MODULE$;
const #9 = Asciz	Lscala/util/parsing/input/StreamReader$;;
const #10 = NameAndType	#8:#9;//  MODULE$:Lscala/util/parsing/input/StreamReader$;
const #11 = Field	#7.#10;	//  scala/util/parsing/input/StreamReader$.MODULE$:Lscala/util/parsing/input/StreamReader$;
const #12 = NameAndType	#3:#4;//  apply:(Ljava/io/Reader;)Lscala/util/parsing/input/StreamReader;
const #13 = Method	#7.#12;	//  scala/util/parsing/input/StreamReader$.apply:(Ljava/io/Reader;)Lscala/util/parsing/input/StreamReader;
const #14 = Asciz	EofCh;
const #15 = Asciz	()C;
const #16 = NameAndType	#14:#15;//  EofCh:()C
const #17 = Method	#7.#16;	//  scala/util/parsing/input/StreamReader$.EofCh:()C
const #18 = Asciz	scala$util$parsing$input$StreamReader$$lnum;
const #19 = Asciz	I;
const #20 = Asciz	scala$util$parsing$input$StreamReader$$seq;
const #21 = Asciz	Lscala/collection/immutable/PagedSeq;;
const #22 = Asciz	<init>;
const #23 = Asciz	(Lscala/collection/immutable/PagedSeq;II)V;
const #24 = Asciz	LineNumberTable;
const #25 = Asciz	scala/util/parsing/input/StreamReader;
const #26 = class	#25;	//  scala/util/parsing/input/StreamReader
const #27 = NameAndType	#20:#21;//  scala$util$parsing$input$StreamReader$$seq:Lscala/collection/immutable/PagedSeq;
const #28 = Field	#26.#27;	//  scala/util/parsing/input/StreamReader.scala$util$parsing$input$StreamReader$$seq:Lscala/collection/immutable/PagedSeq;
const #29 = NameAndType	#18:#19;//  scala$util$parsing$input$StreamReader$$lnum:I
const #30 = Field	#26.#29;	//  scala/util/parsing/input/StreamReader.scala$util$parsing$input$StreamReader$$lnum:I
const #31 = Asciz	scala/util/parsing/input/PagedSeqReader;
const #32 = class	#31;	//  scala/util/parsing/input/PagedSeqReader
const #33 = Asciz	(Lscala/collection/immutable/PagedSeq;I)V;
const #34 = NameAndType	#22:#33;//  "<init>":(Lscala/collection/immutable/PagedSeq;I)V
const #35 = Method	#32.#34;	//  scala/util/parsing/input/PagedSeqReader."<init>":(Lscala/collection/immutable/PagedSeq;I)V
const #36 = Asciz	this;
const #37 = Asciz	Lscala/util/parsing/input/StreamReader;;
const #38 = Asciz	seq;
const #39 = Asciz	off;
const #40 = Asciz	lnum;
const #41 = Asciz	LocalVariableTable;
const #42 = Asciz	(Lscala/collection/immutable/PagedSeq<Ljava/lang/Character;>;II)V;
const #43 = Asciz	Signature;
const #44 = Asciz	rest;
const #45 = Asciz	()Lscala/util/parsing/input/PagedSeqReader;;
const #46 = Asciz	()Lscala/util/parsing/input/StreamReader;;
const #47 = NameAndType	#44:#46;//  rest:()Lscala/util/parsing/input/StreamReader;
const #48 = Method	#26.#47;	//  scala/util/parsing/input/StreamReader.rest:()Lscala/util/parsing/input/StreamReader;
const #49 = Asciz	()Lscala/util/parsing/input/Reader;;
const #50 = Asciz	drop;
const #51 = Asciz	(I)Lscala/util/parsing/input/PagedSeqReader;;
const #52 = Asciz	(I)Lscala/util/parsing/input/StreamReader;;
const #53 = NameAndType	#50:#52;//  drop:(I)Lscala/util/parsing/input/StreamReader;
const #54 = Method	#26.#53;	//  scala/util/parsing/input/StreamReader.drop:(I)Lscala/util/parsing/input/StreamReader;
const #55 = Asciz	n;
const #56 = Asciz	(I)Lscala/util/parsing/input/Reader;;
const #57 = Asciz	pos;
const #58 = Asciz	()Lscala/util/parsing/input/Position;;
const #59 = Asciz	scala/util/parsing/input/StreamReader$$anon$1;
const #60 = class	#59;	//  scala/util/parsing/input/StreamReader$$anon$1
const #61 = Asciz	(Lscala/util/parsing/input/StreamReader;)V;
const #62 = NameAndType	#22:#61;//  "<init>":(Lscala/util/parsing/input/StreamReader;)V
const #63 = Method	#60.#62;	//  scala/util/parsing/input/StreamReader$$anon$1."<init>":(Lscala/util/parsing/input/StreamReader;)V
const #64 = Asciz	scala$util$parsing$input$StreamReader$$nextEol;
const #65 = Asciz	()I;
const #66 = NameAndType	#64:#65;//  scala$util$parsing$input$StreamReader$$nextEol:()I
const #67 = Method	#26.#66;	//  scala/util/parsing/input/StreamReader.scala$util$parsing$input$StreamReader$$nextEol:()I
const #68 = Asciz	offset;
const #69 = NameAndType	#68:#65;//  offset:()I
const #70 = Method	#32.#69;	//  scala/util/parsing/input/PagedSeqReader.offset:()I
const #71 = Asciz	scala/collection/immutable/PagedSeq;
const #72 = class	#71;	//  scala/collection/immutable/PagedSeq
const #73 = Asciz	length;
const #74 = NameAndType	#73:#65;//  length:()I
const #75 = Method	#72.#74;	//  scala/collection/immutable/PagedSeq.length:()I
const #76 = Asciz	slice;
const #77 = Asciz	(I)Lscala/collection/immutable/PagedSeq;;
const #78 = NameAndType	#76:#77;//  slice:(I)Lscala/collection/immutable/PagedSeq;
const #79 = Method	#72.#78;	//  scala/collection/immutable/PagedSeq.slice:(I)Lscala/collection/immutable/PagedSeq;
const #80 = NameAndType	#22:#23;//  "<init>":(Lscala/collection/immutable/PagedSeq;II)V
const #81 = Method	#26.#80;	//  scala/util/parsing/input/StreamReader."<init>":(Lscala/collection/immutable/PagedSeq;II)V
const #82 = Asciz	eolPos;
const #83 = Asciz	(I)Ljava/lang/Object;;
const #84 = NameAndType	#3:#83;//  apply:(I)Ljava/lang/Object;
const #85 = Method	#72.#84;	//  scala/collection/immutable/PagedSeq.apply:(I)Ljava/lang/Object;
const #86 = Asciz	scala/runtime/BoxesRunTime;
const #87 = class	#86;	//  scala/runtime/BoxesRunTime
const #88 = Asciz	unboxToChar;
const #89 = Asciz	(Ljava/lang/Object;)C;
const #90 = NameAndType	#88:#89;//  unboxToChar:(Ljava/lang/Object;)C
const #91 = Method	#87.#90;	//  scala/runtime/BoxesRunTime.unboxToChar:(Ljava/lang/Object;)C
const #92 = int	10;
const #93 = int	26;
const #94 = Asciz	i;
const #95 = Asciz	scala$util$parsing$input$StreamReader$$super$offset;
const #96 = Asciz	ScalaSig;
const #97 = Asciz	InnerClasses;
const #98 = Asciz	$anon$1;
const #99 = Asciz	scala/ScalaObject;
const #100 = class	#99;	//  scala/ScalaObject

{
public final int scala$util$parsing$input$StreamReader$$lnum;

public final scala.collection.immutable.PagedSeq scala$util$parsing$input$StreamReader$$seq;

public static final scala.util.parsing.input.StreamReader apply(java.io.Reader);
  Code:
   Stack=2, Locals=1, Args_size=1
   0:	getstatic	#11; //Field scala/util/parsing/input/StreamReader$.MODULE$:Lscala/util/parsing/input/StreamReader$;
   3:	aload_0
   4:	invokevirtual	#13; //Method scala/util/parsing/input/StreamReader$.apply:(Ljava/io/Reader;)Lscala/util/parsing/input/StreamReader;
   7:	areturn

public static final char EofCh();
  Code:
   Stack=1, Locals=0, Args_size=0
   0:	getstatic	#11; //Field scala/util/parsing/input/StreamReader$.MODULE$:Lscala/util/parsing/input/StreamReader$;
   3:	invokevirtual	#17; //Method scala/util/parsing/input/StreamReader$.EofCh:()C
   6:	ireturn

public scala.util.parsing.input.StreamReader(scala.collection.immutable.PagedSeq, int, int);
  Code:
   Stack=3, Locals=4, Args_size=4
   0:	aload_0
   1:	aload_1
   2:	putfield	#28; //Field scala$util$parsing$input$StreamReader$$seq:Lscala/collection/immutable/PagedSeq;
   5:	aload_0
   6:	iload_3
   7:	putfield	#30; //Field scala$util$parsing$input$StreamReader$$lnum:I
   10:	aload_0
   11:	aload_1
   12:	iload_2
   13:	invokespecial	#35; //Method scala/util/parsing/input/PagedSeqReader."<init>":(Lscala/collection/immutable/PagedSeq;I)V
   16:	return
  LineNumberTable: 
   line 47: 0

  LocalVariableTable: 
   Start  Length  Slot  Name   Signature
   0      17      0    this       Lscala/util/parsing/input/StreamReader;
   0      17      1    seq       Lscala/collection/immutable/PagedSeq;
   0      17      2    off       I
   0      17      3    lnum       I

  Signature: length = 0x2
   00 2A 

public scala.util.parsing.input.PagedSeqReader rest();
  Code:
   Stack=1, Locals=1, Args_size=1
   0:	aload_0
   1:	invokevirtual	#48; //Method rest:()Lscala/util/parsing/input/StreamReader;
   4:	areturn
  LineNumberTable: 
   line 47: 0


public scala.util.parsing.input.Reader rest();
  Code:
   Stack=1, Locals=1, Args_size=1
   0:	aload_0
   1:	invokevirtual	#48; //Method rest:()Lscala/util/parsing/input/StreamReader;
   4:	areturn
  LineNumberTable: 
   line 47: 0


public scala.util.parsing.input.PagedSeqReader drop(int);
  Code:
   Stack=2, Locals=2, Args_size=2
   0:	aload_0
   1:	iload_1
   2:	invokevirtual	#54; //Method drop:(I)Lscala/util/parsing/input/StreamReader;
   5:	areturn
  LineNumberTable: 
   line 47: 0

  LocalVariableTable: 
   Start  Length  Slot  Name   Signature
   0      6      0    this       Lscala/util/parsing/input/StreamReader;
   0      6      1    n       I


public scala.util.parsing.input.Reader drop(int);
  Code:
   Stack=2, Locals=2, Args_size=2
   0:	aload_0
   1:	iload_1
   2:	invokevirtual	#54; //Method drop:(I)Lscala/util/parsing/input/StreamReader;
   5:	areturn
  LineNumberTable: 
   line 47: 0

  LocalVariableTable: 
   Start  Length  Slot  Name   Signature
   0      6      0    this       Lscala/util/parsing/input/StreamReader;
   0      6      1    n       I


public scala.util.parsing.input.Position pos();
  Code:
   Stack=3, Locals=1, Args_size=1
   0:	new	#60; //class scala/util/parsing/input/StreamReader$$anon$1
   3:	dup
   4:	aload_0
   5:	invokespecial	#63; //Method scala/util/parsing/input/StreamReader$$anon$1."<init>":(Lscala/util/parsing/input/StreamReader;)V
   8:	areturn
  LineNumberTable: 
   line 70: 0


public scala.util.parsing.input.StreamReader drop(int);
  Code:
   Stack=6, Locals=3, Args_size=2
   0:	aload_0
   1:	invokevirtual	#67; //Method scala$util$parsing$input$StreamReader$$nextEol:()I
   4:	istore_2
   5:	iload_2
   6:	aload_0
   7:	invokespecial	#70; //Method scala/util/parsing/input/PagedSeqReader.offset:()I
   10:	iload_1
   11:	iadd
   12:	if_icmpge	66
   15:	iload_2
   16:	aload_0
   17:	getfield	#28; //Field scala$util$parsing$input$StreamReader$$seq:Lscala/collection/immutable/PagedSeq;
   20:	invokevirtual	#75; //Method scala/collection/immutable/PagedSeq.length:()I
   23:	if_icmpge	66
   26:	new	#26; //class scala/util/parsing/input/StreamReader
   29:	dup
   30:	aload_0
   31:	getfield	#28; //Field scala$util$parsing$input$StreamReader$$seq:Lscala/collection/immutable/PagedSeq;
   34:	iload_2
   35:	iconst_1
   36:	iadd
   37:	invokevirtual	#79; //Method scala/collection/immutable/PagedSeq.slice:(I)Lscala/collection/immutable/PagedSeq;
   40:	iconst_0
   41:	aload_0
   42:	getfield	#30; //Field scala$util$parsing$input$StreamReader$$lnum:I
   45:	iconst_1
   46:	iadd
   47:	invokespecial	#81; //Method "<init>":(Lscala/collection/immutable/PagedSeq;II)V
   50:	aload_0
   51:	invokespecial	#70; //Method scala/util/parsing/input/PagedSeqReader.offset:()I
   54:	iload_1
   55:	iadd
   56:	iload_2
   57:	iconst_1
   58:	iadd
   59:	isub
   60:	invokevirtual	#54; //Method drop:(I)Lscala/util/parsing/input/StreamReader;
   63:	goto	87
   66:	new	#26; //class scala/util/parsing/input/StreamReader
   69:	dup
   70:	aload_0
   71:	getfield	#28; //Field scala$util$parsing$input$StreamReader$$seq:Lscala/collection/immutable/PagedSeq;
   74:	aload_0
   75:	invokespecial	#70; //Method scala/util/parsing/input/PagedSeqReader.offset:()I
   78:	iload_1
   79:	iadd
   80:	aload_0
   81:	getfield	#30; //Field scala$util$parsing$input$StreamReader$$lnum:I
   84:	invokespecial	#81; //Method "<init>":(Lscala/collection/immutable/PagedSeq;II)V
   87:	areturn
  LineNumberTable: 
   line 63: 0
   line 64: 5
   line 65: 26
   line 67: 66
   line 62: 87

  LocalVariableTable: 
   Start  Length  Slot  Name   Signature
   0      88      0    this       Lscala/util/parsing/input/StreamReader;
   0      88      1    n       I
   5      83      2    eolPos       I


public final int scala$util$parsing$input$StreamReader$$nextEol();
  Code:
   Stack=2, Locals=2, Args_size=1
   0:	aload_0
   1:	invokespecial	#70; //Method scala/util/parsing/input/PagedSeqReader.offset:()I
   4:	istore_1
   5:	iload_1
   6:	aload_0
   7:	getfield	#28; //Field scala$util$parsing$input$StreamReader$$seq:Lscala/collection/immutable/PagedSeq;
   10:	invokevirtual	#75; //Method scala/collection/immutable/PagedSeq.length:()I
   13:	if_icmpge	55
   16:	aload_0
   17:	getfield	#28; //Field scala$util$parsing$input$StreamReader$$seq:Lscala/collection/immutable/PagedSeq;
   20:	iload_1
   21:	invokevirtual	#85; //Method scala/collection/immutable/PagedSeq.apply:(I)Ljava/lang/Object;
   24:	invokestatic	#91; //Method scala/runtime/BoxesRunTime.unboxToChar:(Ljava/lang/Object;)C
   27:	ldc	#92; //int 10
   29:	if_icmpeq	55
   32:	aload_0
   33:	getfield	#28; //Field scala$util$parsing$input$StreamReader$$seq:Lscala/collection/immutable/PagedSeq;
   36:	iload_1
   37:	invokevirtual	#85; //Method scala/collection/immutable/PagedSeq.apply:(I)Ljava/lang/Object;
   40:	invokestatic	#91; //Method scala/runtime/BoxesRunTime.unboxToChar:(Ljava/lang/Object;)C
   43:	ldc	#93; //int 26
   45:	if_icmpeq	55
   48:	iload_1
   49:	iconst_1
   50:	iadd
   51:	istore_1
   52:	goto	5
   55:	iload_1
   56:	ireturn
  LineNumberTable: 
   line 57: 0
   line 58: 5
   line 59: 55

  LocalVariableTable: 
   Start  Length  Slot  Name   Signature
   0      57      0    this       Lscala/util/parsing/input/StreamReader;
   5      51      1    i       I


public scala.util.parsing.input.StreamReader rest();
  Code:
   Stack=6, Locals=1, Args_size=1
   0:	aload_0
   1:	invokespecial	#70; //Method scala/util/parsing/input/PagedSeqReader.offset:()I
   4:	aload_0
   5:	getfield	#28; //Field scala$util$parsing$input$StreamReader$$seq:Lscala/collection/immutable/PagedSeq;
   8:	invokevirtual	#75; //Method scala/collection/immutable/PagedSeq.length:()I
   11:	if_icmpne	18
   14:	aload_0
   15:	goto	88
   18:	aload_0
   19:	getfield	#28; //Field scala$util$parsing$input$StreamReader$$seq:Lscala/collection/immutable/PagedSeq;
   22:	aload_0
   23:	invokespecial	#70; //Method scala/util/parsing/input/PagedSeqReader.offset:()I
   26:	invokevirtual	#85; //Method scala/collection/immutable/PagedSeq.apply:(I)Ljava/lang/Object;
   29:	invokestatic	#91; //Method scala/runtime/BoxesRunTime.unboxToChar:(Ljava/lang/Object;)C
   32:	ldc	#92; //int 10
   34:	if_icmpne	67
   37:	new	#26; //class scala/util/parsing/input/StreamReader
   40:	dup
   41:	aload_0
   42:	getfield	#28; //Field scala$util$parsing$input$StreamReader$$seq:Lscala/collection/immutable/PagedSeq;
   45:	aload_0
   46:	invokespecial	#70; //Method scala/util/parsing/input/PagedSeqReader.offset:()I
   49:	iconst_1
   50:	iadd
   51:	invokevirtual	#79; //Method scala/collection/immutable/PagedSeq.slice:(I)Lscala/collection/immutable/PagedSeq;
   54:	iconst_0
   55:	aload_0
   56:	getfield	#30; //Field scala$util$parsing$input$StreamReader$$lnum:I
   59:	iconst_1
   60:	iadd
   61:	invokespecial	#81; //Method "<init>":(Lscala/collection/immutable/PagedSeq;II)V
   64:	goto	88
   67:	new	#26; //class scala/util/parsing/input/StreamReader
   70:	dup
   71:	aload_0
   72:	getfield	#28; //Field scala$util$parsing$input$StreamReader$$seq:Lscala/collection/immutable/PagedSeq;
   75:	aload_0
   76:	invokespecial	#70; //Method scala/util/parsing/input/PagedSeqReader.offset:()I
   79:	iconst_1
   80:	iadd
   81:	aload_0
   82:	getfield	#30; //Field scala$util$parsing$input$StreamReader$$lnum:I
   85:	invokespecial	#81; //Method "<init>":(Lscala/collection/immutable/PagedSeq;II)V
   88:	areturn
  LineNumberTable: 
   line 51: 0
   line 52: 18
   line 53: 37
   line 54: 67
   line 51: 88


public final int scala$util$parsing$input$StreamReader$$super$offset();
  Code:
   Stack=1, Locals=1, Args_size=1
   0:	aload_0
   1:	invokespecial	#70; //Method scala/util/parsing/input/PagedSeqReader.offset:()I
   4:	ireturn
  LineNumberTable: 
   line 72: 0


}

