Compiled from "StreamReader.scala"
public class scala.util.parsing.input.StreamReader extends scala.util.parsing.input.PagedSeqReader implements scala.ScalaObject
  SourceFile: "StreamReader.scala"
  ScalaSig: length = 0x26B
   05 00 65 07 05 01 02 FFFFFF88 02 0B 01 0C 53 74 72 65
   61 6D 52 65 61 64 65 72 0A 02 03 04 01 05 69 6E
   70 75 74 0A 02 05 06 01 07 70 61 72 73 69 6E 67
   0A 02 07 08 01 04 75 74 69 6C 0A 01 09 01 05 73
   63 61 6C 61 03 00 10 02 0C 0D 0D 01 02 06 08 0E
   02 FFFFFF84 FFFFFF80 FFFFFF80 FFFFFF88 02 0F 02 0C 53 74 72 65 61 6D 52
   65 61 64 65 72 13 03 0D 10 18 10 02 11 16 0D 01
   12 0A 02 13 14 01 04 6C 61 6E 67 0A 01 15 01 04
   6A 61 76 61 09 02 17 12 02 06 4F 62 6A 65 63 74
   10 02 19 1A 0D 01 08 09 02 1B 08 02 0B 53 63 61
   6C 61 4F 62 6A 65 63 74 08 05 1D 0D FFFFFF84 00 1E 01
   06 3C 69 6E 69 74 3E 14 01 0B 08 07 20 0D FFFFFFC2 FFFFFF80
   FFFFFF84 02 21 01 05 45 6F 66 43 68 15 01 22 0F 01 23
   1C 01 1A 08 06 25 0D FFFFFFA0 FFFFFF80 06 22 01 06 45 6F 66
   43 68 20 08 05 27 0D FFFFFF84 00 28 01 05 61 70 70 6C
   79 14 02 29 5D 10 02 0C 2A 06 08 0E 02 FFFFFF84 FFFFFF80 FFFFFF80
   FFFFFF80 10 2B 13 03 2A 2C 18 10 02 0C 2D 09 02 2E 02
   02 0E 50 61 67 65 64 53 65 71 52 65 61 64 65 72
   08 08 30 2A FFFFFF82 FFFFFF80 FFFFFFA0 FFFFFF80 04 31 01 03 73 65 71 10
   03 32 37 39 0D 01 33 0A 02 34 35 01 09 69 6D 6D
   75 74 61 62 6C 65 0A 02 36 08 01 0A 63 6F 6C 6C
   65 63 74 69 6F 6E 09 02 38 33 02 08 50 61 67 65
   64 53 65 71 10 02 19 3A 09 02 3B 08 02 04 43 68
   61 72 08 09 3D 2A FFFFFF82 FFFFFF80 FFFFFFA0 FFFFFF80 04 3E 41 01 03 6F
   66 66 10 02 19 3F 09 02 40 08 02 03 49 6E 74 09
   02 42 2D 01 06 6F 66 66 73 65 74 08 08 44 2A FFFFFF82
   FFFFFF80 FFFFFFA0 FFFFFF80 04 3E 01 04 6C 6E 75 6D 08 05 1D 2A FFFFFF84
   00 46 14 04 29 47 48 49 08 05 30 45 FFFFFFC0 00 31 08
   05 3D 45 FFFFFFC0 00 3E 08 05 44 45 FFFFFFC0 00 3E 08 05 4B
   2A FFFFFF84 20 4C 01 04 72 65 73 74 15 01 29 08 05 4E
   2A FFFFFF84 04 4F 01 07 6E 65 78 74 45 6F 6C 15 01 3E
   08 05 51 2A FFFFFF84 20 52 01 04 64 72 6F 70 14 02 29
   53 08 05 54 50 FFFFFFC0 00 3E 01 01 6E 08 05 56 2A FFFFFF84
   20 57 01 03 70 6F 73 15 01 58 10 02 0C 59 09 02
   5A 02 02 08 50 6F 73 69 74 69 6F 6E 08 09 5C 2A
   FFFFFF81 FFFFFF80 FFFFFF80 FFFFFF84 04 4F 41 01 0C 73 75 70 65 72 24 6F
   66 66 73 65 74 08 05 5E 26 FFFFFFC0 00 5F 01 02 69 6E
   10 02 60 63 0D 01 61 0A 02 62 14 01 02 69 6F 09
   02 64 61 02 06 52 65 61 64 65 72 
  InnerClass: 
   public final $anon$1=class scala/util/parsing/input/StreamReader$$anon$1 of class scala/util/parsing/input/StreamReader
  minor version: 0
  major version: 49
  Constant pool:
Asciz	SourceFile;
Asciz	StreamReader.scala;
Asciz	apply;
Asciz	(Ljava/io/Reader;)Lscala/util/parsing/input/StreamReader;;
Asciz	Code;
Asciz	scala/util/parsing/input/StreamReader$;
class	scala/util/parsing/input/StreamReader$
Asciz	MODULE$;
Asciz	Lscala/util/parsing/input/StreamReader$;;
NameAndType	MODULE$:Lscala/util/parsing/input/StreamReader$;
Field	scala/util/parsing/input/StreamReader$.MODULE$:Lscala/util/parsing/input/StreamReader$;
NameAndType	apply:(Ljava/io/Reader;)Lscala/util/parsing/input/StreamReader;
Method	scala/util/parsing/input/StreamReader$.apply:(Ljava/io/Reader;)Lscala/util/parsing/input/StreamReader;
Asciz	EofCh;
Asciz	()C;
NameAndType	EofCh:()C
Method	scala/util/parsing/input/StreamReader$.EofCh:()C
Asciz	scala$util$parsing$input$StreamReader$$lnum;
Asciz	I;
Asciz	scala$util$parsing$input$StreamReader$$seq;
Asciz	Lscala/collection/immutable/PagedSeq;;
Asciz	scala$util$parsing$input$StreamReader$$super$offset;
Asciz	()I;
Asciz	LineNumberTable;
Asciz	scala/util/parsing/input/PagedSeqReader;
class	scala/util/parsing/input/PagedSeqReader
Asciz	offset;
NameAndType	offset:()I
Method	scala/util/parsing/input/PagedSeqReader.offset:()I
Asciz	rest;
Asciz	()Lscala/util/parsing/input/StreamReader;;
Asciz	scala/util/parsing/input/StreamReader;
class	scala/util/parsing/input/StreamReader
NameAndType	scala$util$parsing$input$StreamReader$$seq:Lscala/collection/immutable/PagedSeq;
Field	scala/util/parsing/input/StreamReader.scala$util$parsing$input$StreamReader$$seq:Lscala/collection/immutable/PagedSeq;
Asciz	scala/collection/immutable/PagedSeq;
class	scala/collection/immutable/PagedSeq
Asciz	length;
NameAndType	length:()I
Method	scala/collection/immutable/PagedSeq.length:()I
Asciz	(I)Ljava/lang/Object;;
NameAndType	apply:(I)Ljava/lang/Object;
Method	scala/collection/immutable/PagedSeq.apply:(I)Ljava/lang/Object;
Asciz	scala/runtime/BoxesRunTime;
class	scala/runtime/BoxesRunTime
Asciz	unboxToChar;
Asciz	(Ljava/lang/Object;)C;
NameAndType	unboxToChar:(Ljava/lang/Object;)C
Method	scala/runtime/BoxesRunTime.unboxToChar:(Ljava/lang/Object;)C
int	10;
Asciz	slice;
Asciz	(I)Lscala/collection/immutable/PagedSeq;;
NameAndType	slice:(I)Lscala/collection/immutable/PagedSeq;
Method	scala/collection/immutable/PagedSeq.slice:(I)Lscala/collection/immutable/PagedSeq;
NameAndType	scala$util$parsing$input$StreamReader$$lnum:I
Field	scala/util/parsing/input/StreamReader.scala$util$parsing$input$StreamReader$$lnum:I
Asciz	<init>;
Asciz	(Lscala/collection/immutable/PagedSeq;II)V;
NameAndType	"<init>":(Lscala/collection/immutable/PagedSeq;II)V
Method	scala/util/parsing/input/StreamReader."<init>":(Lscala/collection/immutable/PagedSeq;II)V
Asciz	scala$util$parsing$input$StreamReader$$nextEol;
int	26;
Asciz	this;
Asciz	Lscala/util/parsing/input/StreamReader;;
Asciz	i;
Asciz	LocalVariableTable;
Asciz	drop;
Asciz	(I)Lscala/util/parsing/input/StreamReader;;
NameAndType	scala$util$parsing$input$StreamReader$$nextEol:()I
Method	scala/util/parsing/input/StreamReader.scala$util$parsing$input$StreamReader$$nextEol:()I
NameAndType	drop:(I)Lscala/util/parsing/input/StreamReader;
Method	scala/util/parsing/input/StreamReader.drop:(I)Lscala/util/parsing/input/StreamReader;
Asciz	n;
Asciz	eolPos;
Asciz	pos;
Asciz	()Lscala/util/parsing/input/Position;;
Asciz	scala/util/parsing/input/StreamReader$$anon$1;
class	scala/util/parsing/input/StreamReader$$anon$1
Asciz	(Lscala/util/parsing/input/StreamReader;)V;
NameAndType	"<init>":(Lscala/util/parsing/input/StreamReader;)V
Method	scala/util/parsing/input/StreamReader$$anon$1."<init>":(Lscala/util/parsing/input/StreamReader;)V
Asciz	(I)Lscala/util/parsing/input/Reader;;
Asciz	(I)Lscala/util/parsing/input/PagedSeqReader;;
Asciz	()Lscala/util/parsing/input/Reader;;
NameAndType	rest:()Lscala/util/parsing/input/StreamReader;
Method	scala/util/parsing/input/StreamReader.rest:()Lscala/util/parsing/input/StreamReader;
Asciz	()Lscala/util/parsing/input/PagedSeqReader;;
Asciz	(Lscala/collection/immutable/PagedSeq;I)V;
NameAndType	"<init>":(Lscala/collection/immutable/PagedSeq;I)V
Method	scala/util/parsing/input/PagedSeqReader."<init>":(Lscala/collection/immutable/PagedSeq;I)V
Asciz	seq;
Asciz	off;
Asciz	lnum;
Asciz	(Lscala/collection/immutable/PagedSeq<Ljava/lang/Character;>;II)V;
Asciz	Signature;
Asciz	ScalaSig;
Asciz	InnerClasses;
Asciz	$anon$1;
Asciz	scala/ScalaObject;
class	scala/ScalaObject

{
public final int scala$util$parsing$input$StreamReader$$lnum;
  Signature: I

public final scala.collection.immutable.PagedSeq scala$util$parsing$input$StreamReader$$seq;
  Signature: Lscala/collection/immutable/PagedSeq;

public static final scala.util.parsing.input.StreamReader apply(java.io.Reader);
  Signature: (Ljava/io/Reader;)Lscala/util/parsing/input/StreamReader;
  Code:
   Stack=2, Locals=1, Args_size=1
	getstatic	Field scala/util/parsing/input/StreamReader$.MODULE$:Lscala/util/parsing/input/StreamReader$;
	aload_0
	invokevirtual	Method scala/util/parsing/input/StreamReader$.apply:(Ljava/io/Reader;)Lscala/util/parsing/input/StreamReader;
	areturn
  Labels:

public static final char EofCh();
  Signature: ()C
  Code:
   Stack=1, Locals=0, Args_size=0
	getstatic	Field scala/util/parsing/input/StreamReader$.MODULE$:Lscala/util/parsing/input/StreamReader$;
	invokevirtual	Method scala/util/parsing/input/StreamReader$.EofCh:()C
	ireturn
  Labels:

public final int scala$util$parsing$input$StreamReader$$super$offset();
  Signature: ()I
  Code:
   Stack=1, Locals=1, Args_size=1
	aload_0
	invokespecial	Method scala/util/parsing/input/PagedSeqReader.offset:()I
	ireturn
  Labels:

public scala.util.parsing.input.StreamReader rest();
  Signature: ()Lscala/util/parsing/input/StreamReader;
  Code:
   Stack=6, Locals=1, Args_size=1
	aload_0
	invokespecial	Method scala/util/parsing/input/PagedSeqReader.offset:()I
	aload_0
	getfield	Field scala$util$parsing$input$StreamReader$$seq:Lscala/collection/immutable/PagedSeq;
	invokevirtual	Method scala/collection/immutable/PagedSeq.length:()I
	if_icmpne	l1 // aload_0
	aload_0
	goto	l2 // areturn
l1	aload_0
	getfield	Field scala$util$parsing$input$StreamReader$$seq:Lscala/collection/immutable/PagedSeq;
	aload_0
	invokespecial	Method scala/util/parsing/input/PagedSeqReader.offset:()I
	invokevirtual	Method scala/collection/immutable/PagedSeq.apply:(I)Ljava/lang/Object;
	invokestatic	Method scala/runtime/BoxesRunTime.unboxToChar:(Ljava/lang/Object;)C
	ldc	int 10
	if_icmpne	l3 // new
	new	class scala/util/parsing/input/StreamReader
	dup
	aload_0
	getfield	Field scala$util$parsing$input$StreamReader$$seq:Lscala/collection/immutable/PagedSeq;
	aload_0
	invokespecial	Method scala/util/parsing/input/PagedSeqReader.offset:()I
	iconst_1
	iadd
	invokevirtual	Method scala/collection/immutable/PagedSeq.slice:(I)Lscala/collection/immutable/PagedSeq;
	iconst_0
	aload_0
	getfield	Field scala$util$parsing$input$StreamReader$$lnum:I
	iconst_1
	iadd
	invokespecial	Method "<init>":(Lscala/collection/immutable/PagedSeq;II)V
	goto	l2 // areturn
l3	new	class scala/util/parsing/input/StreamReader
	dup
	aload_0
	getfield	Field scala$util$parsing$input$StreamReader$$seq:Lscala/collection/immutable/PagedSeq;
	aload_0
	invokespecial	Method scala/util/parsing/input/PagedSeqReader.offset:()I
	iconst_1
	iadd
	aload_0
	getfield	Field scala$util$parsing$input$StreamReader$$lnum:I
	invokespecial	Method "<init>":(Lscala/collection/immutable/PagedSeq;II)V
l2	areturn
  Labels:
   	l1 = 18 // aload_0
   	l3 = 67 // new
   	l2 = 88 // areturn

public final int scala$util$parsing$input$StreamReader$$nextEol();
  Signature: ()I
  Code:
   Stack=2, Locals=2, Args_size=1
	aload_0
	invokespecial	Method scala/util/parsing/input/PagedSeqReader.offset:()I
	istore_1
l2	iload_1
	aload_0
	getfield	Field scala$util$parsing$input$StreamReader$$seq:Lscala/collection/immutable/PagedSeq;
	invokevirtual	Method scala/collection/immutable/PagedSeq.length:()I
	if_icmpge	l1 // iload_1
	aload_0
	getfield	Field scala$util$parsing$input$StreamReader$$seq:Lscala/collection/immutable/PagedSeq;
	iload_1
	invokevirtual	Method scala/collection/immutable/PagedSeq.apply:(I)Ljava/lang/Object;
	invokestatic	Method scala/runtime/BoxesRunTime.unboxToChar:(Ljava/lang/Object;)C
	ldc	int 10
	if_icmpeq	l1 // iload_1
	aload_0
	getfield	Field scala$util$parsing$input$StreamReader$$seq:Lscala/collection/immutable/PagedSeq;
	iload_1
	invokevirtual	Method scala/collection/immutable/PagedSeq.apply:(I)Ljava/lang/Object;
	invokestatic	Method scala/runtime/BoxesRunTime.unboxToChar:(Ljava/lang/Object;)C
	ldc	int 26
	if_icmpeq	l1 // iload_1
	iload_1
	iconst_1
	iadd
	istore_1
	goto	l2 // iload_1
l1	iload_1
	ireturn
  Labels:
   	l2 = 5 // iload_1
   	l1 = 55 // iload_1
  LocalVariableTable: 
   Start  Length  Slot  Name   Signature
   0      57      0    this       Lscala/util/parsing/input/StreamReader;
   5      51      1    i       I


public scala.util.parsing.input.StreamReader drop(int);
  Signature: (I)Lscala/util/parsing/input/StreamReader;
  Code:
   Stack=6, Locals=3, Args_size=2
	aload_0
	invokevirtual	Method scala$util$parsing$input$StreamReader$$nextEol:()I
	istore_2
	iload_2
	aload_0
	invokespecial	Method scala/util/parsing/input/PagedSeqReader.offset:()I
	iload_1
	iadd
	if_icmpge	l1 // new
	iload_2
	aload_0
	getfield	Field scala$util$parsing$input$StreamReader$$seq:Lscala/collection/immutable/PagedSeq;
	invokevirtual	Method scala/collection/immutable/PagedSeq.length:()I
	if_icmpge	l1 // new
	new	class scala/util/parsing/input/StreamReader
	dup
	aload_0
	getfield	Field scala$util$parsing$input$StreamReader$$seq:Lscala/collection/immutable/PagedSeq;
	iload_2
	iconst_1
	iadd
	invokevirtual	Method scala/collection/immutable/PagedSeq.slice:(I)Lscala/collection/immutable/PagedSeq;
	iconst_0
	aload_0
	getfield	Field scala$util$parsing$input$StreamReader$$lnum:I
	iconst_1
	iadd
	invokespecial	Method "<init>":(Lscala/collection/immutable/PagedSeq;II)V
	aload_0
	invokespecial	Method scala/util/parsing/input/PagedSeqReader.offset:()I
	iload_1
	iadd
	iload_2
	iconst_1
	iadd
	isub
	invokevirtual	Method drop:(I)Lscala/util/parsing/input/StreamReader;
	goto	l2 // areturn
l1	new	class scala/util/parsing/input/StreamReader
	dup
	aload_0
	getfield	Field scala$util$parsing$input$StreamReader$$seq:Lscala/collection/immutable/PagedSeq;
	aload_0
	invokespecial	Method scala/util/parsing/input/PagedSeqReader.offset:()I
	iload_1
	iadd
	aload_0
	getfield	Field scala$util$parsing$input$StreamReader$$lnum:I
	invokespecial	Method "<init>":(Lscala/collection/immutable/PagedSeq;II)V
l2	areturn
  Labels:
   	l1 = 66 // new
   	l2 = 87 // areturn
  LocalVariableTable: 
   Start  Length  Slot  Name   Signature
   0      88      0    this       Lscala/util/parsing/input/StreamReader;
   0      88      1    n       I
   5      83      2    eolPos       I


public scala.util.parsing.input.Position pos();
  Signature: ()Lscala/util/parsing/input/Position;
  Code:
   Stack=3, Locals=1, Args_size=1
	new	class scala/util/parsing/input/StreamReader$$anon$1
	dup
	aload_0
	invokespecial	Method scala/util/parsing/input/StreamReader$$anon$1."<init>":(Lscala/util/parsing/input/StreamReader;)V
	areturn
  Labels:

public scala.util.parsing.input.Reader drop(int);
  Signature: (I)Lscala/util/parsing/input/Reader;
  Code:
   Stack=2, Locals=2, Args_size=2
	aload_0
	iload_1
	invokevirtual	Method drop:(I)Lscala/util/parsing/input/StreamReader;
	areturn
  Labels:
  LocalVariableTable: 
   Start  Length  Slot  Name   Signature
   0      6      0    this       Lscala/util/parsing/input/StreamReader;
   0      6      1    n       I


public scala.util.parsing.input.PagedSeqReader drop(int);
  Signature: (I)Lscala/util/parsing/input/PagedSeqReader;
  Code:
   Stack=2, Locals=2, Args_size=2
	aload_0
	iload_1
	invokevirtual	Method drop:(I)Lscala/util/parsing/input/StreamReader;
	areturn
  Labels:
  LocalVariableTable: 
   Start  Length  Slot  Name   Signature
   0      6      0    this       Lscala/util/parsing/input/StreamReader;
   0      6      1    n       I


public scala.util.parsing.input.Reader rest();
  Signature: ()Lscala/util/parsing/input/Reader;
  Code:
   Stack=1, Locals=1, Args_size=1
	aload_0
	invokevirtual	Method rest:()Lscala/util/parsing/input/StreamReader;
	areturn
  Labels:

public scala.util.parsing.input.PagedSeqReader rest();
  Signature: ()Lscala/util/parsing/input/PagedSeqReader;
  Code:
   Stack=1, Locals=1, Args_size=1
	aload_0
	invokevirtual	Method rest:()Lscala/util/parsing/input/StreamReader;
	areturn
  Labels:

public scala.util.parsing.input.StreamReader(scala.collection.immutable.PagedSeq, int, int);
  Signature: (Lscala/collection/immutable/PagedSeq;II)V
  Code:
   Stack=3, Locals=4, Args_size=4
	aload_0
	aload_1
	putfield	Field scala$util$parsing$input$StreamReader$$seq:Lscala/collection/immutable/PagedSeq;
	aload_0
	iload_3
	putfield	Field scala$util$parsing$input$StreamReader$$lnum:I
	aload_0
	aload_1
	iload_2
	invokespecial	Method scala/util/parsing/input/PagedSeqReader."<init>":(Lscala/collection/immutable/PagedSeq;I)V
	return
  Labels:
  LocalVariableTable: 
   Start  Length  Slot  Name   Signature
   0      17      0    this       Lscala/util/parsing/input/StreamReader;
   0      17      1    seq       Lscala/collection/immutable/PagedSeq;
   0      17      2    off       I
   0      17      3    lnum       I

  Signature: length = 0x2
   00 5E 

}

