Compiled from "Array.scala"
public final class scala.Array extends java.lang.Object
  InnerClass: 
   public abstract Array0=class scala/Array$Array0 of class scala/Array
   public abstract ArrayLike=class scala/Array$ArrayLike of class scala/Array
   public abstract Array0$class=class scala/Array$Array0$class of class scala/Array
  ScalaSig: length = 0xB29
   04 01 FFFFFF83 1E 07 05 01 02 FFFFFF88 02 05 01 05 41 72 72
   61 79 0A 01 03 01 05 73 63 61 6C 61 03 00 10 02
   06 07 0D 01 02 06 08 08 02 FFFFFF84 FFFFFF80 FFFFFF80 FFFFFF88 02 09 02
   05 41 72 72 61 79 13 03 07 0A 12 10 02 0B 10 0D
   01 0C 0A 02 0D 0E 01 04 6C 61 6E 67 0A 01 0F 01
   04 6A 61 76 61 09 02 11 0C 02 06 4F 62 6A 65 63
   74 10 02 06 13 09 02 14 02 02 0B 53 63 61 6C 61
   4F 62 6A 65 63 74 08 05 16 07 FFFFFF84 00 17 01 06 3C
   69 6E 69 74 3E 14 01 05 08 05 19 07 FFFFFF84 00 1A 01
   04 63 6F 70 79 14 06 1B 1E 21 1E 21 21 10 02 06
   1C 09 02 1D 02 02 04 55 6E 69 74 10 02 06 1F 09
   02 20 02 02 06 41 6E 79 52 65 66 10 02 06 22 09
   02 23 02 02 03 49 6E 74 08 05 25 07 FFFFFF84 00 26 01
   06 63 6F 6E 63 61 74 15 03 27 FFFFFF82 09 14 03 28 FFFFFF82
   0B 10 04 06 29 FFFFFF82 08 06 04 08 02 02 2A 15 03 2B
   FFFFFF81 1D 13 04 29 0A 2C 12 10 04 2D 2E FFFFFF81 1C 0E 02
   06 00 06 07 2F 07 FFFFFF90 FFFFFF80 FFFFFF81 00 30 02 06 41 72 72
   61 79 30 15 02 31 3B 13 05 2E 0A 32 44 12 10 03
   33 36 39 0E 02 06 34 09 02 35 02 01 0F 52 61 6E
   64 6F 6D 41 63 63 65 73 73 53 65 71 09 02 37 38
   02 07 4D 75 74 61 62 6C 65 0A 02 35 02 10 02 3A
   3B 0C 00 04 08 3C 2E FFFFFF84 FFFFFF80 FFFFFF80 FFFFFFC2 00 3D 02 01 41
   11 02 3E 41 10 02 06 3F 09 02 40 02 02 07 4E 6F
   74 68 69 6E 67 10 02 06 42 09 02 43 02 02 03 41
   6E 79 10 03 45 46 39 0D 01 07 06 07 47 07 FFFFFF90 FFFFFF80
   FFFFFF91 00 48 02 09 41 72 72 61 79 4C 69 6B 65 15 02
   49 4C 13 03 46 0A 4A 10 03 33 36 4B 10 02 3A 4C
   04 08 3C 46 FFFFFF84 FFFFFF80 FFFFFF80 FFFFFFC2 00 3D 08 05 4E 46 FFFFFF86 00
   4F 01 05 66 6F 72 63 65 15 01 50 10 03 06 29 4B
   08 05 52 2E FFFFFF84 00 53 01 06 24 69 6E 69 74 24 14
   01 1B 08 05 55 2E FFFFFF84 20 56 01 0A 70 72 6F 6A 65
   63 74 69 6F 6E 15 01 57 10 03 45 58 39 06 07 59
   07 FFFFFF90 FFFFFF80 FFFFFF81 00 5A 02 0A 50 72 6F 6A 65 63 74 69
   6F 6E 15 02 5B 60 13 05 58 0A 5C 61 12 10 03 33
   5D 5F 09 02 5E 38 02 11 4D 75 74 61 62 6C 65 50
   72 6F 6A 65 63 74 69 6F 6E 10 02 3A 60 04 08 3C
   58 FFFFFF84 FFFFFF80 FFFFFF80 FFFFFFC2 00 3D 10 03 45 46 5F 08 05 52 58
   FFFFFF84 00 53 08 05 64 58 FFFFFF86 08 65 01 08 6E 65 77 41
   72 72 61 79 15 02 66 69 14 03 67 21 6C 10 03 06
   29 68 10 02 3A 69 04 08 6A 63 FFFFFF84 FFFFFF80 FFFFFF80 FFFFFFC2 00 6B
   02 01 42 11 02 5F 41 10 03 06 6D 5F 09 02 6E 02
   02 08 49 74 65 72 61 74 6F 72 08 05 70 58 FFFFFF84 20
   71 01 07 74 6F 41 72 72 61 79 15 02 72 74 10 03
   06 29 73 10 02 3A 74 04 08 6A 6F FFFFFF84 FFFFFF80 FFFFFF80 FFFFFFC2 00
   6B 08 05 4E 58 FFFFFF84 20 76 15 01 77 10 03 06 29 5F
   08 05 79 58 FFFFFF84 20 7A 01 04 64 72 6F 70 14 02 7B
   21 10 03 45 58 5F 08 05 7D 58 FFFFFF84 20 7A 01 04 74
   61 6B 65 08 06 7F 58 FFFFFF84 20 FFFFFF81 00 01 09 64 72 6F
   70 57 68 69 6C 65 14 03 7B FFFFFF81 01 10 06 06 FFFFFF81 02
   5F FFFFFF81 04 09 03 FFFFFF81 03 02 02 09 46 75 6E 63 74 69
   6F 6E 31 10 03 06 FFFFFF81 05 09 03 FFFFFF81 06 02 02 07 42
   6F 6F 6C 65 61 6E 08 07 FFFFFF81 08 58 FFFFFF84 20 FFFFFF81 00 01
   09 74 61 6B 65 57 68 69 6C 65 08 07 FFFFFF81 0A 58 FFFFFF84
   20 FFFFFF81 0B 01 05 73 6C 69 63 65 14 03 7B 21 21 08
   07 FFFFFF81 0D 58 FFFFFF84 20 FFFFFF81 0E 01 07 72 65 76 65 72 73
   65 15 01 7B 08 07 FFFFFF81 0A 2E FFFFFF84 20 FFFFFF81 10 14 03 57
   21 21 08 06 7D 2E FFFFFF84 20 FFFFFF81 12 14 02 57 21 08 06
   79 2E FFFFFF84 20 FFFFFF81 12 08 06 7F 2E FFFFFF84 20 FFFFFF81 15 14 03
   57 FFFFFF81 16 10 06 06 FFFFFF81 02 39 FFFFFF81 04 08 07 FFFFFF81 08 2E
   FFFFFF84 20 FFFFFF81 15 08 06 FFFFFF81 0D 2E FFFFFF84 20 56 08 06 4E 2E
   FFFFFF84 20 FFFFFF81 1A 15 02 FFFFFF81 1B 10 03 06 29 39 10 03 3A
   FFFFFF81 1D 04 08 3C 29 FFFFFF84 FFFFFF80 FFFFFF80 FFFFFFC2 00 3D 08 09 FFFFFF81 1F
   29 FFFFFF82 FFFFFF80 FFFFFFA0 FFFFFF80 04 21 01 07 5F 6C 65 6E 67 74 68
   08 06 16 29 FFFFFF84 00 FFFFFF81 21 14 03 FFFFFF81 22 21 10 04 06
   29 FFFFFF81 1C 08 06 16 29 FFFFFF84 00 FFFFFF81 24 14 04 FFFFFF81 22 21
   21 08 06 16 29 FFFFFF84 00 FFFFFF81 26 14 05 FFFFFF81 22 21 21 21
   08 06 16 29 FFFFFF84 00 FFFFFF81 28 14 06 FFFFFF81 22 21 21 21 21
   08 06 16 29 FFFFFF84 00 FFFFFF81 2A 14 07 FFFFFF81 22 21 21 21 21
   21 08 06 16 29 FFFFFF84 00 FFFFFF81 2C 14 08 FFFFFF81 22 21 21 21
   21 21 21 08 06 16 29 FFFFFF84 00 FFFFFF81 2E 14 09 FFFFFF81 22 21
   21 21 21 21 21 21 08 06 16 29 FFFFFF84 00 FFFFFF81 30 14 0A
   FFFFFF81 22 21 21 21 21 21 21 21 21 08 06 16 29 FFFFFF84 00
   FFFFFF81 32 14 0B FFFFFF81 22 21 21 21 21 21 21 21 21 21 08
   07 FFFFFF81 34 29 FFFFFF84 00 FFFFFF81 35 01 06 6C 65 6E 67 74 68
   15 01 21 08 07 FFFFFF81 37 29 FFFFFF84 00 FFFFFF81 38 01 05 61 70
   70 6C 79 14 03 FFFFFF81 1C 21 08 07 FFFFFF81 3A 29 FFFFFF84 20 FFFFFF81
   3B 01 06 75 70 64 61 74 65 14 04 1B 21 FFFFFF81 1C 08
   07 FFFFFF81 3D 29 FFFFFF84 20 FFFFFF81 3E 01 08 65 6C 65 6D 65 6E
   74 73 15 02 FFFFFF81 3F 10 04 06 6D FFFFFF81 1C 08 07 FFFFFF81 41
   29 FFFFFF84 00 FFFFFF81 24 01 08 73 75 62 41 72 72 61 79 08
   07 FFFFFF81 43 29 FFFFFF84 20 FFFFFF81 44 01 06 66 69 6C 74 65 72
   14 04 FFFFFF81 22 FFFFFF81 45 10 07 06 FFFFFF81 02 FFFFFF81 1C FFFFFF81 04 08
   07 FFFFFF81 47 29 FFFFFF84 20 FFFFFF81 48 01 0A 24 70 6C 75 73 24
   70 6C 75 73 15 04 FFFFFF81 49 FFFFFF81 4C 14 04 FFFFFF81 4A FFFFFF81 4E
   10 04 06 29 FFFFFF81 4B 10 03 3A FFFFFF81 4C 04 0A 6A FFFFFF81 46
   FFFFFF84 FFFFFF80 FFFFFF80 FFFFFFC2 00 FFFFFF81 4D 11 03 FFFFFF81 1C 41 10 05 06 FFFFFF81
   4F FFFFFF81 4B 09 03 FFFFFF81 50 02 02 08 49 74 65 72 61 62
   6C 65 08 07 FFFFFF81 52 29 FFFFFF84 20 FFFFFF81 53 01 03 6D 61 70
   15 04 FFFFFF81 54 FFFFFF81 57 14 04 FFFFFF81 55 FFFFFF81 58 10 04 06 29
   FFFFFF81 56 10 03 3A FFFFFF81 57 04 09 6A FFFFFF81 51 FFFFFF84 FFFFFF80 FFFFFF80 FFFFFFC2
   00 3D 10 07 06 FFFFFF81 02 FFFFFF81 1C FFFFFF81 56 08 07 FFFFFF81 5A 29
   FFFFFF84 20 FFFFFF81 5B 01 07 66 6C 61 74 4D 61 70 15 04 FFFFFF81
   5C FFFFFF81 5F 14 04 FFFFFF81 5D FFFFFF81 60 10 04 06 29 FFFFFF81 5E 10
   03 3A FFFFFF81 5F 04 09 6A FFFFFF81 59 FFFFFF84 FFFFFF80 FFFFFF80 FFFFFFC2 00 3D 10
   07 06 FFFFFF81 02 FFFFFF81 1C FFFFFF81 61 10 05 06 FFFFFF81 4F FFFFFF81 5E 08
   07 FFFFFF81 63 29 FFFFFF84 00 FFFFFF81 64 01 03 7A 69 70 15 04 FFFFFF81
   65 FFFFFF81 6B 14 04 FFFFFF81 66 FFFFFF81 6C 10 04 06 29 FFFFFF81 67 10
   07 06 FFFFFF81 68 FFFFFF81 1C FFFFFF81 6A 09 03 FFFFFF81 69 02 02 06 54
   75 70 6C 65 32 10 03 3A FFFFFF81 6B 04 09 6A FFFFFF81 62 FFFFFF84
   FFFFFF80 FFFFFF80 FFFFFFC2 00 3D 10 04 06 29 FFFFFF81 6A 08 07 FFFFFF81 6E 29
   FFFFFF84 00 FFFFFF81 6F 01 0C 7A 69 70 57 69 74 68 49 6E 64
   65 78 15 02 FFFFFF81 70 10 04 06 29 FFFFFF81 71 10 06 06 FFFFFF81
   68 FFFFFF81 1C 21 08 07 FFFFFF81 73 29 FFFFFF84 00 FFFFFF81 74 01 07 69
   6E 64 69 63 65 73 15 02 FFFFFF81 75 10 03 06 29 21 08
   07 FFFFFF81 77 29 FFFFFF84 00 FFFFFF81 78 01 0C 64 65 65 70 54 6F
   53 74 72 69 6E 67 14 02 FFFFFF81 79 10 04 FFFFFF81 7A FFFFFF81 7D
   0E 03 06 FFFFFF81 7B 09 03 FFFFFF81 7C 02 01 06 50 72 65 64
   65 66 09 04 FFFFFF81 7E FFFFFF81 7F 02 06 53 74 72 69 6E 67
   0A 03 FFFFFF81 7C 02 08 07 FFFFFF82 01 29 FFFFFF84 00 FFFFFF82 02 01 0C
   64 65 65 70 4D 6B 53 74 72 69 6E 67 14 08 FFFFFF81 79
   FFFFFF81 79 FFFFFF81 79 FFFFFF81 79 08 07 FFFFFF82 01 29 FFFFFF84 00 FFFFFF82 04 14
   04 FFFFFF81 79 FFFFFF81 79 08 07 FFFFFF82 06 29 FFFFFF84 00 FFFFFF82 07 01 0A
   64 65 65 70 45 71 75 61 6C 73 14 03 FFFFFF81 04 41 10
   03 3A FFFFFF82 09 04 09 FFFFFF82 0A 24 FFFFFF84 FFFFFF80 FFFFFF80 FFFFFFC2 00 3D 02
   01 54 10 05 06 FFFFFF82 0C FFFFFF82 0E 09 03 FFFFFF82 0D 02 02 0A
   3C 72 65 70 65 61 74 65 64 3E 10 05 06 FFFFFF82 0F FFFFFF82
   08 09 03 FFFFFF82 10 02 02 03 53 65 71 08 07 FFFFFF82 12 07
   FFFFFF84 00 FFFFFF82 13 01 05 72 61 6E 67 65 14 04 FFFFFF81 75 21
   21 08 07 FFFFFF81 37 07 FFFFFF84 00 FFFFFF82 15 15 04 FFFFFF82 16 FFFFFF82 19
   14 04 FFFFFF82 17 FFFFFF82 1B 10 04 06 29 FFFFFF82 18 10 03 3A FFFFFF82
   19 04 0A 3C FFFFFF82 14 FFFFFF84 FFFFFF80 FFFFFF80 FFFFFFC2 00 FFFFFF82 1A 11 02 3E
   1E 10 05 06 FFFFFF82 0C FFFFFF82 18 08 07 FFFFFF81 37 07 FFFFFF84 00 FFFFFF82
   1D 14 04 FFFFFF82 1E FFFFFF82 1F 10 04 06 29 FFFFFF81 04 10 05 06
   FFFFFF82 0C FFFFFF81 04 08 07 FFFFFF81 37 07 FFFFFF84 00 FFFFFF82 21 14 04 FFFFFF82
   22 FFFFFF82 26 10 04 06 29 FFFFFF82 23 10 03 06 FFFFFF82 24 09 03
   FFFFFF82 25 02 02 04 42 79 74 65 10 05 06 FFFFFF82 0C FFFFFF82 23
   08 07 FFFFFF81 37 07 FFFFFF84 00 FFFFFF82 28 14 04 FFFFFF82 29 FFFFFF82 2D 10
   04 06 29 FFFFFF82 2A 10 03 06 FFFFFF82 2B 09 03 FFFFFF82 2C 02 02
   05 53 68 6F 72 74 10 05 06 FFFFFF82 0C FFFFFF82 2A 08 07 FFFFFF81
   37 07 FFFFFF84 00 FFFFFF82 2F 14 04 FFFFFF82 30 FFFFFF82 34 10 04 06 29
   FFFFFF82 31 10 03 06 FFFFFF82 32 09 03 FFFFFF82 33 02 02 04 43 68
   61 72 10 05 06 FFFFFF82 0C FFFFFF82 31 08 07 FFFFFF81 37 07 FFFFFF84 00
   FFFFFF82 36 14 04 FFFFFF81 75 FFFFFF82 37 10 04 06 FFFFFF82 0C 21 08 07
   FFFFFF81 37 07 FFFFFF84 00 FFFFFF82 39 14 04 FFFFFF82 3A FFFFFF82 3E 10 04 06
   29 FFFFFF82 3B 10 03 06 FFFFFF82 3C 09 03 FFFFFF82 3D 02 02 04 4C
   6F 6E 67 10 05 06 FFFFFF82 0C FFFFFF82 3B 08 07 FFFFFF81 37 07 FFFFFF84
   00 FFFFFF82 40 14 04 FFFFFF82 41 FFFFFF82 45 10 04 06 29 FFFFFF82 42 10
   03 06 FFFFFF82 43 09 03 FFFFFF82 44 02 02 05 46 6C 6F 61 74
   10 05 06 FFFFFF82 0C FFFFFF82 42 08 07 FFFFFF81 37 07 FFFFFF84 00 FFFFFF82 47
   14 04 FFFFFF82 48 FFFFFF82 4C 10 04 06 29 FFFFFF82 49 10 03 06 FFFFFF82
   4A 09 03 FFFFFF82 4B 02 02 06 44 6F 75 62 6C 65 10 05
   06 FFFFFF82 0C FFFFFF82 49 08 07 FFFFFF81 37 07 FFFFFF84 00 FFFFFF82 4E 14 04
   FFFFFF82 4F FFFFFF82 50 10 03 06 29 1B 10 04 06 FFFFFF82 0C 1B 08
   07 FFFFFF82 52 07 FFFFFF84 00 FFFFFF82 53 01 04 6D 61 6B 65 15 04
   FFFFFF82 54 FFFFFF82 57 14 05 FFFFFF82 55 21 FFFFFF82 56 10 04 06 29 FFFFFF82
   56 10 03 3A FFFFFF82 57 04 09 3C FFFFFF82 51 FFFFFF84 FFFFFF80 FFFFFF80 FFFFFFC2 00
   3D 08 07 FFFFFF82 59 07 FFFFFF84 00 FFFFFF82 5A 01 0C 66 72 6F 6D
   46 75 6E 63 74 69 6F 6E 15 04 FFFFFF82 5B FFFFFF82 5F 14 04
   FFFFFF82 5C FFFFFF82 60 14 03 FFFFFF82 5D 21 10 04 06 29 FFFFFF82 5E 10
   03 3A FFFFFF82 5F 04 09 3C FFFFFF82 58 FFFFFF84 FFFFFF80 FFFFFF80 FFFFFFC2 00 3D 10
   06 06 FFFFFF81 02 21 FFFFFF82 5E 08 07 FFFFFF82 59 07 FFFFFF84 00 FFFFFF82 62
   15 04 FFFFFF82 63 FFFFFF82 68 14 04 FFFFFF82 64 FFFFFF82 69 14 04 FFFFFF82 65
   21 21 10 04 06 29 FFFFFF82 66 10 04 06 29 FFFFFF82 67 10 03
   3A FFFFFF82 68 04 09 3C FFFFFF82 61 FFFFFF84 FFFFFF80 FFFFFF80 FFFFFFC2 00 3D 10 07
   06 FFFFFF82 6A 21 21 FFFFFF82 67 09 03 FFFFFF82 6B 02 02 09 46 75
   6E 63 74 69 6F 6E 32 08 07 FFFFFF82 59 07 FFFFFF84 00 FFFFFF82 6D
   15 04 FFFFFF82 6E FFFFFF82 74 14 04 FFFFFF82 6F FFFFFF82 75 14 05 FFFFFF82 70
   21 21 21 10 04 06 29 FFFFFF82 71 10 04 06 29 FFFFFF82 72 10
   04 06 29 FFFFFF82 73 10 03 3A FFFFFF82 74 04 09 3C FFFFFF82 6C FFFFFF84
   FFFFFF80 FFFFFF80 FFFFFFC2 00 3D 10 08 06 FFFFFF82 76 21 21 21 FFFFFF82 73 09
   03 FFFFFF82 77 02 02 09 46 75 6E 63 74 69 6F 6E 33 08
   07 FFFFFF82 59 07 FFFFFF84 00 FFFFFF82 79 15 04 FFFFFF82 7A FFFFFF83 01 14 04
   FFFFFF82 7B FFFFFF83 02 14 06 FFFFFF82 7C 21 21 21 21 10 04 06 29
   FFFFFF82 7D 10 04 06 29 FFFFFF82 7E 10 04 06 29 FFFFFF82 7F 10 04
   06 29 FFFFFF83 00 10 03 3A FFFFFF83 01 04 09 3C FFFFFF82 78 FFFFFF84 FFFFFF80
   FFFFFF80 FFFFFFC2 00 3D 10 09 06 FFFFFF83 03 21 21 21 21 FFFFFF83 00 09
   03 FFFFFF83 04 02 02 09 46 75 6E 63 74 69 6F 6E 34 08
   07 FFFFFF82 59 07 FFFFFF84 00 FFFFFF83 06 15 04 FFFFFF83 07 FFFFFF83 0F 14 04
   FFFFFF83 08 FFFFFF83 10 14 07 FFFFFF83 09 21 21 21 21 21 10 04 06
   29 FFFFFF83 0A 10 04 06 29 FFFFFF83 0B 10 04 06 29 FFFFFF83 0C 10
   04 06 29 FFFFFF83 0D 10 04 06 29 FFFFFF83 0E 10 03 3A FFFFFF83 0F
   04 09 3C FFFFFF83 05 FFFFFF84 FFFFFF80 FFFFFF80 FFFFFFC2 00 3D 10 0A 06 FFFFFF83 11
   21 21 21 21 21 FFFFFF83 0E 09 03 FFFFFF83 12 02 02 09 46 75
   6E 63 74 69 6F 6E 35 08 07 FFFFFF83 14 07 FFFFFF84 00 FFFFFF83 15
   01 0A 75 6E 61 70 70 6C 79 53 65 71 15 04 FFFFFF83 16
   FFFFFF83 1C 14 04 FFFFFF83 17 FFFFFF83 1D 10 05 06 FFFFFF83 18 FFFFFF83 1A 09
   03 FFFFFF83 19 02 02 06 4F 70 74 69 6F 6E 10 05 06 FFFFFF82
   0F FFFFFF83 1B 10 03 3A FFFFFF83 1C 04 09 3C FFFFFF83 13 FFFFFF84 FFFFFF80 FFFFFF80
   FFFFFFC2 00 3D 10 04 06 29 FFFFFF83 1B 
  Signature: length = 0x2
   00 06 
  SourceFile: "Array.scala"
  minor version: 0
  major version: 49
  Constant pool:
class	java/lang/Object
class	scala/Array
class	scala/Array$Array0
class	scala/Array$Array0$class
class	scala/Array$ArrayLike
Asciz	<A:Ljava/lang/Object;>Ljava/lang/Object;Lscala/Array$Array0<TA;>;;
Asciz	Array.scala;
Asciz	Array0;
Asciz	Array0$class;
Asciz	ArrayLike;
Asciz	InnerClasses;
Asciz	ScalaSig;
Asciz	Signature;
Asciz	SourceFile;
Asciz	java/lang/Object;
Asciz	scala/Array;
Asciz	scala/Array$Array0;
Asciz	scala/Array$Array0$class;
Asciz	scala/Array$ArrayLike;

{
}

