Compiled from "BigDecimal.scala"
public class scala.BigDecimal extends java.lang.Number implements scala.ScalaObject,java.io.Serializable
  SourceFile: "BigDecimal.scala"
  ScalaSig: length = 0xE02
   05 00 FFFFFF83 4E 07 05 01 02 FFFFFF88 02 05 01 0A 42 69 67
   44 65 63 69 6D 61 6C 0A 01 03 01 05 73 63 61 6C
   61 03 00 10 02 06 07 0D 01 02 06 08 08 02 FFFFFF84 FFFFFF80
   FFFFFF80 FFFFFF88 02 09 02 0A 42 69 67 44 65 63 69 6D 61 6C
   13 03 07 0A 12 10 02 0B 10 0D 01 0C 0A 02 0D 0E
   01 04 6C 61 6E 67 0A 01 0F 01 04 6A 61 76 61 09
   02 11 0C 02 06 4F 62 6A 65 63 74 10 02 06 13 09
   02 14 02 02 0B 53 63 61 6C 61 4F 62 6A 65 63 74
   08 05 16 07 FFFFFF84 00 17 01 06 3C 69 6E 69 74 3E 14
   01 05 07 05 19 07 FFFFFF88 02 1A 01 0C 52 6F 75 6E 64
   69 6E 67 4D 6F 64 65 10 02 1B 1C 0D 01 07 06 08
   1D 07 FFFFFF84 FFFFFF80 FFFFFF80 FFFFFF88 02 1E 02 0C 52 6F 75 6E 64 69
   6E 67 4D 6F 64 65 13 03 1C 1F 12 10 02 06 20 09
   02 21 02 02 0B 45 6E 75 6D 65 72 61 74 69 6F 6E
   08 05 16 1C FFFFFF84 00 23 14 01 1A 05 08 1D 1C FFFFFF84 FFFFFF80
   FFFFFF80 FFFFFF80 00 25 10 02 26 27 0D 01 1C 09 02 28 20 02
   05 56 61 6C 75 65 08 07 2A 1C FFFFFFC2 FFFFFF80 FFFFFF84 00 2B 01
   02 55 50 15 01 25 08 06 2D 1C FFFFFFA0 FFFFFF80 04 25 01 03
   55 50 20 08 07 2F 1C FFFFFFC2 FFFFFF80 FFFFFF84 00 2B 01 04 44 4F
   57 4E 08 06 31 1C FFFFFFA0 FFFFFF80 04 25 01 05 44 4F 57 4E
   20 08 07 33 1C FFFFFFC2 FFFFFF80 FFFFFF84 00 2B 01 07 43 45 49 4C
   49 4E 47 08 06 35 1C FFFFFFA0 FFFFFF80 04 25 01 08 43 45 49
   4C 49 4E 47 20 08 07 37 1C FFFFFFC2 FFFFFF80 FFFFFF84 00 2B 01 05
   46 4C 4F 4F 52 08 06 39 1C FFFFFFA0 FFFFFF80 04 25 01 06 46
   4C 4F 4F 52 20 08 07 3B 1C FFFFFFC2 FFFFFF80 FFFFFF84 00 2B 01 07
   48 41 4C 46 5F 55 50 08 06 3D 1C FFFFFFA0 FFFFFF80 04 25 01
   08 48 41 4C 46 5F 55 50 20 08 07 3F 1C FFFFFFC2 FFFFFF80 FFFFFF84
   00 2B 01 09 48 41 4C 46 5F 44 4F 57 4E 08 06 41
   1C FFFFFFA0 FFFFFF80 04 25 01 0A 48 41 4C 46 5F 44 4F 57 4E
   20 08 07 43 1C FFFFFFC2 FFFFFF80 FFFFFF84 00 2B 01 09 48 41 4C 46
   5F 45 56 45 4E 08 06 45 1C FFFFFFA0 FFFFFF80 04 25 01 0A 48
   41 4C 46 5F 45 56 45 4E 20 08 07 47 1C FFFFFFC2 FFFFFF80 FFFFFF84
   00 2B 01 0B 55 4E 4E 45 43 45 53 53 41 52 59 08
   06 49 1C FFFFFFA0 FFFFFF80 04 25 01 0C 55 4E 4E 45 43 45 53
   53 41 52 59 20 08 08 4B 1C FFFFFF84 FFFFFF80 FFFFFF80 FFFFFF84 08 4C 01
   0B 72 65 61 64 52 65 73 6F 6C 76 65 14 01 0A 28
   02 1C 4E 10 02 06 4F 09 02 50 02 02 0C 73 65 72
   69 61 6C 69 7A 61 62 6C 65 08 07 52 07 FFFFFFC2 FFFFFF80 FFFFFF84
   04 53 01 09 6D 69 6E 43 61 63 68 65 64 15 01 54
   10 02 06 55 09 02 56 02 02 03 49 6E 74 08 06 58
   07 FFFFFFA0 FFFFFF80 04 54 01 0A 6D 69 6E 43 61 63 68 65 64
   20 08 07 5A 07 FFFFFFC2 FFFFFF80 FFFFFF84 04 53 01 09 6D 61 78 43
   61 63 68 65 64 08 06 5C 07 FFFFFFA0 FFFFFF80 04 54 01 0A 6D
   61 78 43 61 63 68 65 64 20 08 08 5E 07 FFFFFF88 FFFFFFC2 FFFFFF80
   FFFFFF84 04 5F 01 05 63 61 63 68 65 15 01 60 10 03 06
   61 63 09 02 62 02 02 05 41 72 72 61 79 10 02 06
   64 06 08 08 02 FFFFFF84 FFFFFF80 FFFFFF80 FFFFFF80 00 65 13 03 64 66 12
   10 02 0B 67 09 02 68 0C 02 06 4E 75 6D 62 65 72
   08 08 6A 64 FFFFFF82 FFFFFFC2 FFFFFF80 FFFFFF84 00 6B 01 0A 62 69 67 44
   65 63 69 6D 61 6C 15 01 6C 10 02 6D 70 0D 01 6E
   0A 02 6F 0E 01 04 6D 61 74 68 09 02 08 6E 08 08
   72 64 FFFFFF82 FFFFFF80 FFFFFFA0 FFFFFF80 04 6C 01 0B 62 69 67 44 65 63
   69 6D 61 6C 20 08 08 74 64 FFFFFF82 FFFFFFC2 FFFFFF80 FFFFFF84 00 75 01
   02 6D 63 15 01 76 10 02 6D 77 09 02 78 6E 02 0B
   4D 61 74 68 43 6F 6E 74 65 78 74 08 08 7A 64 FFFFFF82
   FFFFFF80 FFFFFFA0 FFFFFF80 04 76 01 03 6D 63 20 08 05 16 64 FFFFFF84 00
   7C 14 03 63 7D 7E 08 05 6A 7B FFFFFFC0 00 6C 08 05 74
   7B FFFFFFC0 00 76 08 06 16 64 FFFFFF84 00 FFFFFF81 00 14 03 63 FFFFFF81
   01 08 05 6A 7F FFFFFFC0 00 6C 08 07 FFFFFF81 03 64 FFFFFF84 05 FFFFFF81
   04 01 11 62 69 67 64 65 63 32 42 69 67 44 65 63
   69 6D 61 6C 14 03 63 FFFFFF81 05 08 07 FFFFFF81 06 FFFFFF81 02 FFFFFFC0
   00 6C 01 01 78 08 07 FFFFFF81 08 64 FFFFFF84 20 FFFFFF81 09 01 08
   68 61 73 68 43 6F 64 65 14 01 54 08 07 FFFFFF81 0B 64
   FFFFFF84 20 FFFFFF81 0C 01 06 65 71 75 61 6C 73 14 04 FFFFFF81 0D
   FFFFFF81 10 10 03 06 FFFFFF81 0E 09 03 FFFFFF81 0F 02 02 07 42 6F
   6F 6C 65 61 6E 08 08 FFFFFF81 11 FFFFFF81 0A FFFFFFC0 00 FFFFFF81 12 01
   04 74 68 61 74 10 03 06 FFFFFF81 13 09 03 FFFFFF81 14 02 02
   03 41 6E 79 08 07 FFFFFF81 0B 64 FFFFFF84 00 FFFFFF81 16 14 04 FFFFFF81
   0D FFFFFF81 17 08 07 FFFFFF81 11 FFFFFF81 15 FFFFFFC0 00 63 08 07 FFFFFF81 19
   64 FFFFFF84 00 FFFFFF81 1A 01 07 63 6F 6D 70 61 72 65 14 03
   54 FFFFFF81 1B 08 07 FFFFFF81 11 FFFFFF81 18 FFFFFFC0 00 63 08 07 FFFFFF81 1D
   64 FFFFFF84 00 FFFFFF81 1E 01 08 24 6C 65 73 73 24 65 71 14
   04 FFFFFF81 0D FFFFFF81 1F 08 07 FFFFFF81 11 FFFFFF81 1C FFFFFFC0 00 63 08 07
   FFFFFF81 21 64 FFFFFF84 00 FFFFFF81 22 01 0B 24 67 72 65 61 74 65
   72 24 65 71 14 04 FFFFFF81 0D FFFFFF81 23 08 07 FFFFFF81 11 FFFFFF81 20
   FFFFFFC0 00 63 08 07 FFFFFF81 25 64 FFFFFF84 00 FFFFFF81 26 01 05 24 6C
   65 73 73 14 04 FFFFFF81 0D FFFFFF81 27 08 07 FFFFFF81 11 FFFFFF81 24 FFFFFFC0
   00 63 08 07 FFFFFF81 29 64 FFFFFF84 00 FFFFFF81 2A 01 08 24 67 72
   65 61 74 65 72 14 04 FFFFFF81 0D FFFFFF81 2B 08 07 FFFFFF81 11 FFFFFF81
   28 FFFFFFC0 00 63 08 07 FFFFFF81 2D 64 FFFFFF84 00 FFFFFF81 2E 01 05 24
   70 6C 75 73 14 03 63 FFFFFF81 2F 08 07 FFFFFF81 11 FFFFFF81 2C FFFFFFC0
   00 63 08 07 FFFFFF81 31 64 FFFFFF84 00 FFFFFF81 32 01 06 24 6D 69
   6E 75 73 14 03 63 FFFFFF81 33 08 07 FFFFFF81 11 FFFFFF81 30 FFFFFFC0 00
   63 08 07 FFFFFF81 35 64 FFFFFF84 00 FFFFFF81 36 01 06 24 74 69 6D
   65 73 14 03 63 FFFFFF81 37 08 07 FFFFFF81 11 FFFFFF81 34 FFFFFFC0 00 63
   08 07 FFFFFF81 39 64 FFFFFF84 00 FFFFFF81 3A 01 04 24 64 69 76 14
   03 63 FFFFFF81 3B 08 07 FFFFFF81 11 FFFFFF81 38 FFFFFFC0 00 63 08 07 FFFFFF81
   3D 64 FFFFFF84 00 FFFFFF81 3E 01 0C 24 64 69 76 24 70 65 72
   63 65 6E 74 14 04 FFFFFF81 3F FFFFFF81 42 10 05 06 FFFFFF81 40 63
   63 09 03 FFFFFF81 41 02 02 06 54 75 70 6C 65 32 08 07
   FFFFFF81 11 FFFFFF81 3C FFFFFFC0 00 63 08 07 FFFFFF81 44 64 FFFFFF84 00 FFFFFF81 45
   01 04 71 75 6F 74 14 03 63 FFFFFF81 46 08 07 FFFFFF81 11 FFFFFF81
   43 FFFFFFC0 00 63 08 07 FFFFFF81 48 64 FFFFFF84 00 FFFFFF81 49 01 03 6D
   69 6E 14 03 63 FFFFFF81 4A 08 07 FFFFFF81 11 FFFFFF81 47 FFFFFFC0 00 63
   08 07 FFFFFF81 4C 64 FFFFFF84 00 FFFFFF81 4D 01 03 6D 61 78 14 03
   63 FFFFFF81 4E 08 07 FFFFFF81 11 FFFFFF81 4B FFFFFFC0 00 63 08 07 FFFFFF81 50
   64 FFFFFF84 00 FFFFFF81 51 01 09 72 65 6D 61 69 6E 64 65 72
   14 03 63 FFFFFF81 52 08 07 FFFFFF81 11 FFFFFF81 4F FFFFFFC0 00 63 08 07
   FFFFFF81 54 64 FFFFFF84 00 FFFFFF81 55 01 03 70 6F 77 14 03 63 FFFFFF81
   56 08 07 FFFFFF81 57 FFFFFF81 53 FFFFFFC0 00 54 01 01 6E 08 07 FFFFFF81
   59 64 FFFFFF84 00 FFFFFF81 5A 01 0C 75 6E 61 72 79 5F 24 6D
   69 6E 75 73 15 01 63 08 07 FFFFFF81 5C 64 FFFFFF84 00 FFFFFF81 5A
   01 03 61 62 73 08 06 FFFFFF81 5E 64 FFFFFF84 00 53 01 06 73
   69 67 6E 75 6D 08 06 FFFFFF81 60 64 FFFFFF84 00 53 01 09 70
   72 65 63 69 73 69 6F 6E 08 07 FFFFFF81 62 64 FFFFFF84 00 FFFFFF81
   63 01 05 72 6F 75 6E 64 14 03 63 FFFFFF81 64 08 06 74
   FFFFFF81 61 FFFFFFC0 00 76 08 06 FFFFFF81 66 64 FFFFFF84 00 53 01 05 73
   63 61 6C 65 08 07 FFFFFF81 68 64 FFFFFF84 00 FFFFFF81 5A 01 03 75
   6C 70 08 07 FFFFFF81 6A 64 FFFFFF84 00 FFFFFF81 6B 01 05 61 70 70
   6C 79 14 03 63 FFFFFF81 6C 08 06 74 FFFFFF81 69 FFFFFFC0 00 76 08
   07 FFFFFF81 6E 64 FFFFFF84 00 FFFFFF81 6F 01 08 73 65 74 53 63 61
   6C 65 14 03 63 FFFFFF81 70 08 07 FFFFFF81 66 FFFFFF81 6D FFFFFFC0 00 54
   08 07 FFFFFF81 6E 64 FFFFFF84 00 FFFFFF81 72 14 05 63 FFFFFF81 73 FFFFFF81 74
   08 07 FFFFFF81 66 FFFFFF81 71 FFFFFFC0 00 54 08 08 FFFFFF81 75 FFFFFF81 71 FFFFFFC0
   00 FFFFFF81 76 01 04 6D 6F 64 65 10 03 FFFFFF81 77 24 0E 03
   FFFFFF81 78 18 0E 02 06 00 08 07 FFFFFF81 7A 64 FFFFFF84 20 FFFFFF81 7B
   01 09 62 79 74 65 56 61 6C 75 65 14 02 FFFFFF81 7C 10
   03 06 FFFFFF81 7D 09 03 FFFFFF81 7E 02 02 04 42 79 74 65 08
   07 FFFFFF82 00 64 FFFFFF84 20 FFFFFF82 01 01 0A 73 68 6F 72 74 56
   61 6C 75 65 14 02 FFFFFF82 02 10 03 06 FFFFFF82 03 09 03 FFFFFF82
   04 02 02 05 53 68 6F 72 74 08 07 FFFFFF82 06 64 FFFFFF84 00
   FFFFFF82 07 01 09 63 68 61 72 56 61 6C 75 65 15 02 FFFFFF82
   08 10 03 06 FFFFFF82 09 09 03 FFFFFF82 0A 02 02 04 43 68 61
   72 08 07 FFFFFF82 0C 64 FFFFFF84 00 FFFFFF81 09 01 08 69 6E 74 56
   61 6C 75 65 08 07 FFFFFF82 0E 64 FFFFFF84 00 FFFFFF82 0F 01 09 6C
   6F 6E 67 56 61 6C 75 65 14 02 FFFFFF82 10 10 03 06 FFFFFF82
   11 09 03 FFFFFF82 12 02 02 04 4C 6F 6E 67 08 07 FFFFFF82 14
   64 FFFFFF84 00 FFFFFF82 15 01 0A 66 6C 6F 61 74 56 61 6C 75
   65 14 02 FFFFFF82 16 10 03 06 FFFFFF82 17 09 03 FFFFFF82 18 02 02
   05 46 6C 6F 61 74 08 07 FFFFFF82 1A 64 FFFFFF84 00 FFFFFF82 1B 01
   0B 64 6F 75 62 6C 65 56 61 6C 75 65 14 02 FFFFFF82 1C
   10 03 06 FFFFFF82 1D 09 03 FFFFFF82 1E 02 02 06 44 6F 75 62
   6C 65 08 07 FFFFFF82 20 64 FFFFFF84 00 FFFFFF82 21 01 0E 62 79 74
   65 56 61 6C 75 65 45 78 61 63 74 15 02 FFFFFF81 7C 08
   07 FFFFFF82 23 64 FFFFFF84 00 FFFFFF82 24 01 0F 73 68 6F 72 74 56
   61 6C 75 65 45 78 61 63 74 15 02 FFFFFF82 02 08 06 FFFFFF82
   26 64 FFFFFF84 00 53 01 0D 69 6E 74 56 61 6C 75 65 45
   78 61 63 74 08 07 FFFFFF82 28 64 FFFFFF84 00 FFFFFF82 29 01 0E 6C
   6F 6E 67 56 61 6C 75 65 45 78 61 63 74 15 02 FFFFFF82
   10 08 07 FFFFFF82 2B 64 FFFFFF84 00 FFFFFF82 2C 01 05 75 6E 74 69
   6C 14 04 FFFFFF82 2D FFFFFF82 3B 10 07 FFFFFF82 2E FFFFFF82 31 63 FFFFFF82 34
   0E 03 06 FFFFFF82 2F 09 03 FFFFFF82 30 02 01 05 52 61 6E 67
   65 09 04 FFFFFF82 32 FFFFFF82 33 02 07 50 61 72 74 69 61 6C
   0A 03 FFFFFF82 30 02 10 05 FFFFFF82 35 FFFFFF82 38 63 0E 03 06 FFFFFF82
   36 09 03 FFFFFF82 37 02 01 0C 47 65 6E 65 72 69 63 52
   61 6E 67 65 09 04 FFFFFF82 39 FFFFFF82 3A 02 09 45 78 63 6C
   75 73 69 76 65 0A 03 FFFFFF82 37 02 08 07 FFFFFF82 3C FFFFFF82 2A
   FFFFFFC0 00 63 01 03 65 6E 64 08 07 FFFFFF82 2B 64 FFFFFF84 00 FFFFFF82
   3E 14 06 FFFFFF82 34 FFFFFF82 3F FFFFFF82 40 08 07 FFFFFF82 3C FFFFFF82 3D FFFFFFC0
   00 63 08 07 FFFFFF82 41 FFFFFF82 3D FFFFFFC0 00 63 01 04 73 74 65
   70 08 07 FFFFFF82 43 64 FFFFFF84 00 FFFFFF82 44 01 02 74 6F 14 04
   FFFFFF82 45 FFFFFF82 49 10 07 FFFFFF82 2E FFFFFF82 31 63 FFFFFF82 46 10 05 FFFFFF82
   35 FFFFFF82 47 63 09 04 FFFFFF82 48 FFFFFF82 3A 02 09 49 6E 63 6C
   75 73 69 76 65 08 07 FFFFFF82 3C FFFFFF82 42 FFFFFFC0 00 63 08 07
   FFFFFF82 43 64 FFFFFF84 00 FFFFFF82 4B 14 06 FFFFFF82 46 FFFFFF82 4C FFFFFF82 4D 08
   07 FFFFFF82 3C FFFFFF82 4A FFFFFFC0 00 63 08 07 FFFFFF82 41 FFFFFF82 4A FFFFFFC0 00
   63 08 07 FFFFFF82 4F 64 FFFFFF84 00 FFFFFF82 50 01 08 74 6F 42 69
   67 49 6E 74 14 02 FFFFFF82 51 10 03 06 FFFFFF82 52 09 03 FFFFFF82
   53 02 02 06 42 69 67 49 6E 74 08 07 FFFFFF82 55 64 FFFFFF84
   00 FFFFFF82 56 01 0D 74 6F 42 69 67 49 6E 74 45 78 61
   63 74 14 02 FFFFFF82 57 10 05 06 FFFFFF82 58 FFFFFF82 51 09 03 FFFFFF82
   59 02 02 06 4F 70 74 69 6F 6E 08 07 FFFFFF82 5B 64 FFFFFF84
   20 FFFFFF82 5C 01 08 74 6F 53 74 72 69 6E 67 14 02 FFFFFF82
   5D 10 04 FFFFFF82 5E FFFFFF82 61 0E 03 06 FFFFFF82 5F 09 03 FFFFFF82 60
   02 01 06 50 72 65 64 65 66 09 04 FFFFFF82 62 FFFFFF82 63 02
   06 53 74 72 69 6E 67 0A 03 FFFFFF82 60 02 28 02 64 4E
   08 09 FFFFFF82 66 07 FFFFFF88 FFFFFF80 FFFFFFA0 FFFFFFA0 04 60 01 06 63 61 63
   68 65 20 08 08 FFFFFF82 68 07 FFFFFFC2 FFFFFF80 FFFFFF84 00 75 01 12 64
   65 66 61 75 6C 74 4D 61 74 68 43 6F 6E 74 65 78
   74 08 07 FFFFFF82 6A 07 FFFFFFA0 FFFFFF80 04 76 01 13 64 65 66 61
   75 6C 74 4D 61 74 68 43 6F 6E 74 65 78 74 20 08
   07 FFFFFF81 6A 07 FFFFFF84 00 FFFFFF82 6C 14 03 63 FFFFFF82 6D 08 07 FFFFFF82
   6E FFFFFF82 6B FFFFFFC0 00 54 01 01 69 08 07 FFFFFF81 6A 07 FFFFFF84 00
   FFFFFF82 70 14 05 63 FFFFFF82 71 FFFFFF82 72 08 07 FFFFFF82 6E FFFFFF82 6F FFFFFFC0
   00 54 08 06 74 FFFFFF82 6F FFFFFFC0 00 76 08 07 FFFFFF81 6A 07 FFFFFF84
   00 FFFFFF82 74 14 03 63 FFFFFF82 75 08 08 FFFFFF82 76 FFFFFF82 73 FFFFFFC0 00
   FFFFFF82 10 01 01 6C 08 07 FFFFFF81 6A 07 FFFFFF84 00 FFFFFF82 78 14 05
   63 FFFFFF82 79 FFFFFF82 7A 08 08 FFFFFF82 76 FFFFFF82 77 FFFFFFC0 00 FFFFFF82 10 08
   06 74 FFFFFF82 77 FFFFFFC0 00 76 08 07 FFFFFF81 6A 07 FFFFFF84 00 FFFFFF82 7C
   14 05 63 FFFFFF82 7D FFFFFF82 7F 08 08 FFFFFF82 7E FFFFFF82 7B FFFFFFC0 00 FFFFFF82
   10 01 0B 75 6E 73 63 61 6C 65 64 56 61 6C 08 07
   FFFFFF81 66 FFFFFF82 7B FFFFFFC0 00 54 08 07 FFFFFF81 6A 07 FFFFFF84 00 FFFFFF83 01
   14 07 63 FFFFFF83 02 FFFFFF83 03 FFFFFF83 04 08 08 FFFFFF82 7E FFFFFF83 00 FFFFFFC0
   00 FFFFFF82 10 08 07 FFFFFF81 66 FFFFFF83 00 FFFFFFC0 00 54 08 06 74 FFFFFF83
   00 FFFFFFC0 00 76 08 07 FFFFFF81 6A 07 FFFFFF84 00 FFFFFF83 06 14 03 63
   FFFFFF83 07 08 08 FFFFFF83 08 FFFFFF83 05 FFFFFFC0 00 FFFFFF82 1C 01 01 64 08
   07 FFFFFF81 6A 07 FFFFFF84 00 FFFFFF83 0A 14 05 63 FFFFFF83 0B FFFFFF83 0C 08
   08 FFFFFF83 08 FFFFFF83 09 FFFFFFC0 00 FFFFFF82 1C 08 06 74 FFFFFF83 09 FFFFFFC0 00
   76 08 07 FFFFFF81 6A 07 FFFFFF84 00 FFFFFF83 0E 14 03 63 FFFFFF83 0F 08
   08 FFFFFF81 06 FFFFFF83 0D FFFFFFC0 00 FFFFFF83 10 10 04 06 61 FFFFFF82 08 08
   07 FFFFFF81 6A 07 FFFFFF84 00 FFFFFF83 12 14 05 63 FFFFFF83 13 FFFFFF83 14 08
   08 FFFFFF81 06 FFFFFF83 11 FFFFFFC0 00 FFFFFF83 10 08 06 74 FFFFFF83 11 FFFFFFC0 00
   76 08 07 FFFFFF81 6A 07 FFFFFF84 00 FFFFFF83 16 14 03 63 FFFFFF83 17 08
   08 FFFFFF81 06 FFFFFF83 15 FFFFFFC0 00 FFFFFF82 5D 08 07 FFFFFF81 6A 07 FFFFFF84 00
   FFFFFF83 19 14 05 63 FFFFFF83 1A FFFFFF83 1B 08 08 FFFFFF81 06 FFFFFF83 18 FFFFFFC0
   00 FFFFFF82 5D 08 06 74 FFFFFF83 18 FFFFFFC0 00 76 08 07 FFFFFF81 6A 07
   FFFFFF84 00 FFFFFF83 1D 14 03 63 FFFFFF83 1E 08 08 FFFFFF81 06 FFFFFF83 1C FFFFFFC0
   00 FFFFFF82 51 08 07 FFFFFF81 6A 07 FFFFFF84 00 FFFFFF83 20 14 05 63 FFFFFF83
   21 FFFFFF83 22 08 08 FFFFFF81 06 FFFFFF83 1F FFFFFFC0 00 FFFFFF82 51 08 06 74
   FFFFFF83 1F FFFFFFC0 00 76 08 07 FFFFFF81 6A 07 FFFFFF84 00 FFFFFF83 24 14 05
   63 FFFFFF83 25 FFFFFF83 26 08 08 FFFFFF82 7E FFFFFF83 23 FFFFFFC0 00 FFFFFF82 51 08
   07 FFFFFF81 66 FFFFFF83 23 FFFFFFC0 00 54 08 07 FFFFFF81 6A 07 FFFFFF84 00 FFFFFF83
   28 14 07 63 FFFFFF83 29 FFFFFF83 2A FFFFFF83 2B 08 08 FFFFFF82 7E FFFFFF83 27
   FFFFFFC0 00 FFFFFF82 51 08 07 FFFFFF81 66 FFFFFF83 27 FFFFFFC0 00 54 08 06 74
   FFFFFF83 27 FFFFFFC0 00 76 08 07 FFFFFF81 6A 07 FFFFFF84 00 FFFFFF83 2D 14 03
   63 FFFFFF83 2E 08 07 FFFFFF83 2F FFFFFF83 2C FFFFFFC0 00 6C 01 02 62 64
   08 07 FFFFFF81 6A 07 FFFFFF84 00 FFFFFF83 31 14 05 63 FFFFFF83 32 FFFFFF83 33
   08 07 FFFFFF83 2F FFFFFF83 30 FFFFFFC0 00 6C 08 06 74 FFFFFF83 30 FFFFFFC0 00
   76 08 07 FFFFFF83 35 07 FFFFFF84 01 FFFFFF83 36 01 0E 69 6E 74 32
   62 69 67 44 65 63 69 6D 61 6C 14 03 63 FFFFFF83 37 08
   07 FFFFFF82 6E FFFFFF83 34 FFFFFFC0 00 54 08 07 FFFFFF83 39 07 FFFFFF84 01 FFFFFF83
   3A 01 0F 6C 6F 6E 67 32 62 69 67 44 65 63 69 6D
   61 6C 14 03 63 FFFFFF83 3B 08 08 FFFFFF82 76 FFFFFF83 38 FFFFFFC0 00 FFFFFF82
   10 08 07 FFFFFF83 3D 07 FFFFFF84 01 FFFFFF83 3E 01 10 66 6C 6F 61
   74 32 62 69 67 44 65 63 69 6D 61 6C 14 03 63 FFFFFF83
   3F 08 08 FFFFFF83 40 FFFFFF83 3C FFFFFFC0 00 FFFFFF82 16 01 01 66 08 07
   FFFFFF83 42 07 FFFFFF84 01 FFFFFF83 43 01 11 64 6F 75 62 6C 65 32
   62 69 67 44 65 63 69 6D 61 6C 14 03 63 FFFFFF83 44 08
   08 FFFFFF83 08 FFFFFF83 41 FFFFFFC0 00 FFFFFF82 1C 08 07 FFFFFF83 46 07 FFFFFF84 01
   FFFFFF83 47 01 11 73 74 72 69 6E 67 32 62 69 67 44 65
   63 69 6D 61 6C 14 03 63 FFFFFF83 48 08 08 FFFFFF83 49 FFFFFF83 45
   FFFFFFC0 00 FFFFFF82 5D 01 01 73 08 07 FFFFFF83 4B 07 FFFFFF84 01 FFFFFF83 4C
   01 11 62 69 67 49 6E 74 32 62 69 67 44 65 63 69
   6D 61 6C 14 03 63 FFFFFF83 4D 08 08 FFFFFF81 06 FFFFFF83 4A FFFFFFC0 00
   FFFFFF82 51 
  InnerClass: 
   public #343= #83 of #342; //Partial=class scala/Range$Partial of class scala/Range
   public abstract #346= #144 of #345; //Value=class scala/Enumeration$Value of class scala/Enumeration
   public #351= #348 of #350; //Inclusive=class scala/GenericRange$Inclusive of class scala/GenericRange
   public #354= #353 of #350; //Exclusive=class scala/GenericRange$Exclusive of class scala/GenericRange
   public final #355= #85 of #12; //$anonfun$to$1=class scala/BigDecimal$$anonfun$to$1 of class scala/BigDecimal
   public final #356= #102 of #12; //$anonfun$until$1=class scala/BigDecimal$$anonfun$until$1 of class scala/BigDecimal
  minor version: 0
  major version: 49
  Constant pool:
const #1 = Asciz	SourceFile;
const #2 = Asciz	BigDecimal.scala;
const #3 = Asciz	mc;
const #4 = Asciz	Ljava/math/MathContext;;
const #5 = Asciz	bigDecimal;
const #6 = Asciz	Ljava/math/BigDecimal;;
const #7 = Asciz	<init>;
const #8 = Asciz	(Ljava/math/BigDecimal;Ljava/math/MathContext;)V;
const #9 = Asciz	Code;
const #10 = Asciz	LineNumberTable;
const #11 = Asciz	scala/BigDecimal;
const #12 = class	#11;	//  scala/BigDecimal
const #13 = NameAndType	#5:#6;//  bigDecimal:Ljava/math/BigDecimal;
const #14 = Field	#12.#13;	//  scala/BigDecimal.bigDecimal:Ljava/math/BigDecimal;
const #15 = NameAndType	#3:#4;//  mc:Ljava/math/MathContext;
const #16 = Field	#12.#15;	//  scala/BigDecimal.mc:Ljava/math/MathContext;
const #17 = Asciz	java/lang/Number;
const #18 = class	#17;	//  java/lang/Number
const #19 = Asciz	()V;
const #20 = NameAndType	#7:#19;//  "<init>":()V
const #21 = Method	#18.#20;	//  java/lang/Number."<init>":()V
const #22 = Asciz	this;
const #23 = Asciz	Lscala/BigDecimal;;
const #24 = Asciz	LocalVariableTable;
const #25 = Asciz	toString;
const #26 = Asciz	()Ljava/lang/String;;
const #27 = Asciz	()Ljava/math/BigDecimal;;
const #28 = NameAndType	#5:#27;//  bigDecimal:()Ljava/math/BigDecimal;
const #29 = Method	#12.#28;	//  scala/BigDecimal.bigDecimal:()Ljava/math/BigDecimal;
const #30 = Asciz	java/math/BigDecimal;
const #31 = class	#30;	//  java/math/BigDecimal
const #32 = NameAndType	#25:#26;//  toString:()Ljava/lang/String;
const #33 = Method	#31.#32;	//  java/math/BigDecimal.toString:()Ljava/lang/String;
const #34 = Asciz	toBigIntExact;
const #35 = Asciz	()Lscala/Option;;
const #36 = Asciz	scala/Some;
const #37 = class	#36;	//  scala/Some
const #38 = Asciz	scala/BigInt;
const #39 = class	#38;	//  scala/BigInt
const #40 = Asciz	toBigIntegerExact;
const #41 = Asciz	()Ljava/math/BigInteger;;
const #42 = NameAndType	#40:#41;//  toBigIntegerExact:()Ljava/math/BigInteger;
const #43 = Method	#31.#42;	//  java/math/BigDecimal.toBigIntegerExact:()Ljava/math/BigInteger;
const #44 = Asciz	(Ljava/math/BigInteger;)V;
const #45 = NameAndType	#7:#44;//  "<init>":(Ljava/math/BigInteger;)V
const #46 = Method	#39.#45;	//  scala/BigInt."<init>":(Ljava/math/BigInteger;)V
const #47 = Asciz	(Ljava/lang/Object;)V;
const #48 = NameAndType	#7:#47;//  "<init>":(Ljava/lang/Object;)V
const #49 = Method	#37.#48;	//  scala/Some."<init>":(Ljava/lang/Object;)V
const #50 = Asciz	scala/None$;
const #51 = class	#50;	//  scala/None$
const #52 = Asciz	MODULE$;
const #53 = Asciz	Lscala/None$;;
const #54 = NameAndType	#52:#53;//  MODULE$:Lscala/None$;
const #55 = Field	#51.#54;	//  scala/None$.MODULE$:Lscala/None$;
const #56 = Asciz	java/lang/ArithmeticException;
const #57 = class	#56;	//  java/lang/ArithmeticException
const #58 = Asciz	exceptionResult1;
const #59 = Asciz	Lscala/Option;;
const #60 = Asciz	()Lscala/Option<Lscala/BigInt;>;;
const #61 = Asciz	Signature;
const #62 = Asciz	toBigInt;
const #63 = Asciz	()Lscala/BigInt;;
const #64 = Asciz	toBigInteger;
const #65 = NameAndType	#64:#41;//  toBigInteger:()Ljava/math/BigInteger;
const #66 = Method	#31.#65;	//  java/math/BigDecimal.toBigInteger:()Ljava/math/BigInteger;
const #67 = Asciz	to;
const #68 = Asciz	(Lscala/BigDecimal;Lscala/BigDecimal;)Lscala/GenericRange$Inclusive;;
const #69 = Asciz	scala/Range$BigDecimal$;
const #70 = class	#69;	//  scala/Range$BigDecimal$
const #71 = Asciz	Lscala/Range$BigDecimal$;;
const #72 = NameAndType	#52:#71;//  MODULE$:Lscala/Range$BigDecimal$;
const #73 = Field	#70.#72;	//  scala/Range$BigDecimal$.MODULE$:Lscala/Range$BigDecimal$;
const #74 = Asciz	inclusive;
const #75 = Asciz	(Lscala/BigDecimal;Lscala/BigDecimal;Lscala/BigDecimal;)Lscala/GenericRange$Inclusive;;
const #76 = NameAndType	#74:#75;//  inclusive:(Lscala/BigDecimal;Lscala/BigDecimal;Lscala/BigDecimal;)Lscala/GenericRange$Inclusive;
const #77 = Method	#70.#76;	//  scala/Range$BigDecimal$.inclusive:(Lscala/BigDecimal;Lscala/BigDecimal;Lscala/BigDecimal;)Lscala/GenericRange$Inclusive;
const #78 = Asciz	end;
const #79 = Asciz	step;
const #80 = Asciz	(Lscala/BigDecimal;Lscala/BigDecimal;)Lscala/GenericRange$Inclusive<Lscala/BigDecimal;>;;
const #81 = Asciz	(Lscala/BigDecimal;)Lscala/Range$Partial;;
const #82 = Asciz	scala/Range$Partial;
const #83 = class	#82;	//  scala/Range$Partial
const #84 = Asciz	scala/BigDecimal$$anonfun$to$1;
const #85 = class	#84;	//  scala/BigDecimal$$anonfun$to$1
const #86 = Asciz	(Lscala/BigDecimal;Lscala/BigDecimal;)V;
const #87 = NameAndType	#7:#86;//  "<init>":(Lscala/BigDecimal;Lscala/BigDecimal;)V
const #88 = Method	#85.#87;	//  scala/BigDecimal$$anonfun$to$1."<init>":(Lscala/BigDecimal;Lscala/BigDecimal;)V
const #89 = Asciz	(Lscala/Function1;)V;
const #90 = NameAndType	#7:#89;//  "<init>":(Lscala/Function1;)V
const #91 = Method	#83.#90;	//  scala/Range$Partial."<init>":(Lscala/Function1;)V
const #92 = Asciz	end$2;
const #93 = Asciz	(Lscala/BigDecimal;)Lscala/Range$Partial<Lscala/BigDecimal;Lscala/GenericRange$Inclusive<Lscala/BigDecimal;>;>;;
const #94 = Asciz	until;
const #95 = Asciz	(Lscala/BigDecimal;Lscala/BigDecimal;)Lscala/GenericRange$Exclusive;;
const #96 = Asciz	apply;
const #97 = Asciz	(Lscala/BigDecimal;Lscala/BigDecimal;Lscala/BigDecimal;)Lscala/GenericRange$Exclusive;;
const #98 = NameAndType	#96:#97;//  apply:(Lscala/BigDecimal;Lscala/BigDecimal;Lscala/BigDecimal;)Lscala/GenericRange$Exclusive;
const #99 = Method	#70.#98;	//  scala/Range$BigDecimal$.apply:(Lscala/BigDecimal;Lscala/BigDecimal;Lscala/BigDecimal;)Lscala/GenericRange$Exclusive;
const #100 = Asciz	(Lscala/BigDecimal;Lscala/BigDecimal;)Lscala/GenericRange$Exclusive<Lscala/BigDecimal;>;;
const #101 = Asciz	scala/BigDecimal$$anonfun$until$1;
const #102 = class	#101;	//  scala/BigDecimal$$anonfun$until$1
const #103 = Method	#102.#87;	//  scala/BigDecimal$$anonfun$until$1."<init>":(Lscala/BigDecimal;Lscala/BigDecimal;)V
const #104 = Asciz	end$1;
const #105 = Asciz	(Lscala/BigDecimal;)Lscala/Range$Partial<Lscala/BigDecimal;Lscala/GenericRange$Exclusive<Lscala/BigDecimal;>;>;;
const #106 = Asciz	longValueExact;
const #107 = Asciz	()J;
const #108 = NameAndType	#106:#107;//  longValueExact:()J
const #109 = Method	#31.#108;	//  java/math/BigDecimal.longValueExact:()J
const #110 = Asciz	intValueExact;
const #111 = Asciz	()I;
const #112 = NameAndType	#110:#111;//  intValueExact:()I
const #113 = Method	#31.#112;	//  java/math/BigDecimal.intValueExact:()I
const #114 = Asciz	shortValueExact;
const #115 = Asciz	()S;
const #116 = NameAndType	#114:#115;//  shortValueExact:()S
const #117 = Method	#31.#116;	//  java/math/BigDecimal.shortValueExact:()S
const #118 = Asciz	byteValueExact;
const #119 = Asciz	()B;
const #120 = NameAndType	#118:#119;//  byteValueExact:()B
const #121 = Method	#31.#120;	//  java/math/BigDecimal.byteValueExact:()B
const #122 = Asciz	doubleValue;
const #123 = Asciz	()D;
const #124 = NameAndType	#122:#123;//  doubleValue:()D
const #125 = Method	#31.#124;	//  java/math/BigDecimal.doubleValue:()D
const #126 = Asciz	floatValue;
const #127 = Asciz	()F;
const #128 = NameAndType	#126:#127;//  floatValue:()F
const #129 = Method	#31.#128;	//  java/math/BigDecimal.floatValue:()F
const #130 = Asciz	longValue;
const #131 = NameAndType	#130:#107;//  longValue:()J
const #132 = Method	#31.#131;	//  java/math/BigDecimal.longValue:()J
const #133 = Asciz	intValue;
const #134 = NameAndType	#133:#111;//  intValue:()I
const #135 = Method	#31.#134;	//  java/math/BigDecimal.intValue:()I
const #136 = Asciz	charValue;
const #137 = Asciz	()C;
const #138 = Method	#12.#134;	//  scala/BigDecimal.intValue:()I
const #139 = Asciz	shortValue;
const #140 = Asciz	byteValue;
const #141 = Asciz	setScale;
const #142 = Asciz	(ILscala/Enumeration$Value;)Lscala/BigDecimal;;
const #143 = Asciz	scala/Enumeration$Value;
const #144 = class	#143;	//  scala/Enumeration$Value
const #145 = Asciz	id;
const #146 = NameAndType	#145:#111;//  id:()I
const #147 = Method	#144.#146;	//  scala/Enumeration$Value.id:()I
const #148 = Asciz	(II)Ljava/math/BigDecimal;;
const #149 = NameAndType	#141:#148;//  setScale:(II)Ljava/math/BigDecimal;
const #150 = Method	#31.#149;	//  java/math/BigDecimal.setScale:(II)Ljava/math/BigDecimal;
const #151 = Asciz	bigdec2BigDecimal;
const #152 = Asciz	(Ljava/math/BigDecimal;)Lscala/BigDecimal;;
const #153 = NameAndType	#151:#152;//  bigdec2BigDecimal:(Ljava/math/BigDecimal;)Lscala/BigDecimal;
const #154 = Method	#12.#153;	//  scala/BigDecimal.bigdec2BigDecimal:(Ljava/math/BigDecimal;)Lscala/BigDecimal;
const #155 = Asciz	scale;
const #156 = Asciz	I;
const #157 = Asciz	mode;
const #158 = Asciz	Lscala/Enumeration$Value;;
const #159 = Asciz	(I)Lscala/BigDecimal;;
const #160 = Asciz	(I)Ljava/math/BigDecimal;;
const #161 = NameAndType	#141:#160;//  setScale:(I)Ljava/math/BigDecimal;
const #162 = Method	#31.#161;	//  java/math/BigDecimal.setScale:(I)Ljava/math/BigDecimal;
const #163 = Asciz	(Ljava/math/MathContext;)Lscala/BigDecimal;;
const #164 = Asciz	scala/BigDecimal$;
const #165 = class	#164;	//  scala/BigDecimal$
const #166 = Asciz	Lscala/BigDecimal$;;
const #167 = NameAndType	#52:#166;//  MODULE$:Lscala/BigDecimal$;
const #168 = Field	#165.#167;	//  scala/BigDecimal$.MODULE$:Lscala/BigDecimal$;
const #169 = Asciz	(Ljava/lang/String;Ljava/math/MathContext;)Lscala/BigDecimal;;
const #170 = NameAndType	#96:#169;//  apply:(Ljava/lang/String;Ljava/math/MathContext;)Lscala/BigDecimal;
const #171 = Method	#165.#170;	//  scala/BigDecimal$.apply:(Ljava/lang/String;Ljava/math/MathContext;)Lscala/BigDecimal;
const #172 = Asciz	ulp;
const #173 = Asciz	()Lscala/BigDecimal;;
const #174 = NameAndType	#172:#27;//  ulp:()Ljava/math/BigDecimal;
const #175 = Method	#31.#174;	//  java/math/BigDecimal.ulp:()Ljava/math/BigDecimal;
const #176 = NameAndType	#155:#111;//  scale:()I
const #177 = Method	#31.#176;	//  java/math/BigDecimal.scale:()I
const #178 = Asciz	round;
const #179 = Asciz	(Ljava/math/MathContext;)Ljava/math/BigDecimal;;
const #180 = NameAndType	#178:#179;//  round:(Ljava/math/MathContext;)Ljava/math/BigDecimal;
const #181 = Method	#31.#180;	//  java/math/BigDecimal.round:(Ljava/math/MathContext;)Ljava/math/BigDecimal;
const #182 = Asciz	precision;
const #183 = NameAndType	#182:#111;//  precision:()I
const #184 = Method	#31.#183;	//  java/math/BigDecimal.precision:()I
const #185 = Asciz	signum;
const #186 = NameAndType	#185:#111;//  signum:()I
const #187 = Method	#31.#186;	//  java/math/BigDecimal.signum:()I
const #188 = Asciz	abs;
const #189 = Asciz	()Ljava/math/MathContext;;
const #190 = NameAndType	#3:#189;//  mc:()Ljava/math/MathContext;
const #191 = Method	#12.#190;	//  scala/BigDecimal.mc:()Ljava/math/MathContext;
const #192 = NameAndType	#188:#179;//  abs:(Ljava/math/MathContext;)Ljava/math/BigDecimal;
const #193 = Method	#31.#192;	//  java/math/BigDecimal.abs:(Ljava/math/MathContext;)Ljava/math/BigDecimal;
const #194 = Asciz	unary_$minus;
const #195 = Asciz	negate;
const #196 = NameAndType	#195:#179;//  negate:(Ljava/math/MathContext;)Ljava/math/BigDecimal;
const #197 = Method	#31.#196;	//  java/math/BigDecimal.negate:(Ljava/math/MathContext;)Ljava/math/BigDecimal;
const #198 = Asciz	pow;
const #199 = Asciz	(ILjava/math/MathContext;)Ljava/math/BigDecimal;;
const #200 = NameAndType	#198:#199;//  pow:(ILjava/math/MathContext;)Ljava/math/BigDecimal;
const #201 = Method	#31.#200;	//  java/math/BigDecimal.pow:(ILjava/math/MathContext;)Ljava/math/BigDecimal;
const #202 = Asciz	n;
const #203 = Asciz	remainder;
const #204 = Asciz	(Lscala/BigDecimal;)Lscala/BigDecimal;;
const #205 = Asciz	(Ljava/math/BigDecimal;Ljava/math/MathContext;)Ljava/math/BigDecimal;;
const #206 = NameAndType	#203:#205;//  remainder:(Ljava/math/BigDecimal;Ljava/math/MathContext;)Ljava/math/BigDecimal;
const #207 = Method	#31.#206;	//  java/math/BigDecimal.remainder:(Ljava/math/BigDecimal;Ljava/math/MathContext;)Ljava/math/BigDecimal;
const #208 = Asciz	that;
const #209 = Asciz	max;
const #210 = Asciz	(Ljava/math/BigDecimal;)Ljava/math/BigDecimal;;
const #211 = NameAndType	#209:#210;//  max:(Ljava/math/BigDecimal;)Ljava/math/BigDecimal;
const #212 = Method	#31.#211;	//  java/math/BigDecimal.max:(Ljava/math/BigDecimal;)Ljava/math/BigDecimal;
const #213 = Asciz	min;
const #214 = NameAndType	#213:#210;//  min:(Ljava/math/BigDecimal;)Ljava/math/BigDecimal;
const #215 = Method	#31.#214;	//  java/math/BigDecimal.min:(Ljava/math/BigDecimal;)Ljava/math/BigDecimal;
const #216 = Asciz	quot;
const #217 = Asciz	divideToIntegralValue;
const #218 = NameAndType	#217:#205;//  divideToIntegralValue:(Ljava/math/BigDecimal;Ljava/math/MathContext;)Ljava/math/BigDecimal;
const #219 = Method	#31.#218;	//  java/math/BigDecimal.divideToIntegralValue:(Ljava/math/BigDecimal;Ljava/math/MathContext;)Ljava/math/BigDecimal;
const #220 = Asciz	$div$percent;
const #221 = Asciz	(Lscala/BigDecimal;)Lscala/Tuple2;;
const #222 = Asciz	divideAndRemainder;
const #223 = Asciz	(Ljava/math/BigDecimal;Ljava/math/MathContext;)[Ljava/math/BigDecimal;;
const #224 = NameAndType	#222:#223;//  divideAndRemainder:(Ljava/math/BigDecimal;Ljava/math/MathContext;)[Ljava/math/BigDecimal;
const #225 = Method	#31.#224;	//  java/math/BigDecimal.divideAndRemainder:(Ljava/math/BigDecimal;Ljava/math/MathContext;)[Ljava/math/BigDecimal;
const #226 = Asciz	scala/Array$;
const #227 = class	#226;	//  scala/Array$
const #228 = Asciz	Lscala/Array$;;
const #229 = NameAndType	#52:#228;//  MODULE$:Lscala/Array$;
const #230 = Field	#227.#229;	//  scala/Array$.MODULE$:Lscala/Array$;
const #231 = Asciz	scala/runtime/ScalaRunTime$;
const #232 = class	#231;	//  scala/runtime/ScalaRunTime$
const #233 = Asciz	Lscala/runtime/ScalaRunTime$;;
const #234 = NameAndType	#52:#233;//  MODULE$:Lscala/runtime/ScalaRunTime$;
const #235 = Field	#232.#234;	//  scala/runtime/ScalaRunTime$.MODULE$:Lscala/runtime/ScalaRunTime$;
const #236 = Asciz	boxArray;
const #237 = Asciz	(Ljava/lang/Object;)Lscala/runtime/BoxedArray;;
const #238 = NameAndType	#236:#237;//  boxArray:(Ljava/lang/Object;)Lscala/runtime/BoxedArray;
const #239 = Method	#232.#238;	//  scala/runtime/ScalaRunTime$.boxArray:(Ljava/lang/Object;)Lscala/runtime/BoxedArray;
const #240 = Asciz	unapplySeq;
const #241 = Asciz	(Lscala/collection/Sequence;)Lscala/Some;;
const #242 = NameAndType	#240:#241;//  unapplySeq:(Lscala/collection/Sequence;)Lscala/Some;
const #243 = Method	#227.#242;	//  scala/Array$.unapplySeq:(Lscala/collection/Sequence;)Lscala/Some;
const #244 = Asciz	get;
const #245 = Asciz	()Ljava/lang/Object;;
const #246 = NameAndType	#244:#245;//  get:()Ljava/lang/Object;
const #247 = Method	#37.#246;	//  scala/Some.get:()Ljava/lang/Object;
const #248 = Asciz	scala/runtime/BoxedArray;
const #249 = class	#248;	//  scala/runtime/BoxedArray
const #250 = Asciz	arrayValue;
const #251 = Asciz	(Lscala/runtime/BoxedArray;Ljava/lang/Class;)Ljava/lang/Object;;
const #252 = NameAndType	#250:#251;//  arrayValue:(Lscala/runtime/BoxedArray;Ljava/lang/Class;)Ljava/lang/Object;
const #253 = Method	#232.#252;	//  scala/runtime/ScalaRunTime$.arrayValue:(Lscala/runtime/BoxedArray;Ljava/lang/Class;)Ljava/lang/Object;
const #254 = Asciz	[Ljava/math/BigDecimal;;
const #255 = class	#254;	//  "[Ljava/math/BigDecimal;"
const #256 = Asciz	scala/collection/generic/SequenceTemplate;
const #257 = class	#256;	//  scala/collection/generic/SequenceTemplate
const #258 = Asciz	lengthCompare;
const #259 = Asciz	(I)I;
const #260 = NameAndType	#258:#259;//  lengthCompare:(I)I
const #261 = InterfaceMethod	#257.#260;	//  scala/collection/generic/SequenceTemplate.lengthCompare:(I)I
const #262 = Asciz	scala/runtime/BoxesRunTime;
const #263 = class	#262;	//  scala/runtime/BoxesRunTime
const #264 = Asciz	boxToInteger;
const #265 = Asciz	(I)Ljava/lang/Integer;;
const #266 = NameAndType	#264:#265;//  boxToInteger:(I)Ljava/lang/Integer;
const #267 = Method	#263.#266;	//  scala/runtime/BoxesRunTime.boxToInteger:(I)Ljava/lang/Integer;
const #268 = Asciz	equals;
const #269 = Asciz	(Ljava/lang/Object;Ljava/lang/Object;)Z;
const #270 = NameAndType	#268:#269;//  equals:(Ljava/lang/Object;Ljava/lang/Object;)Z
const #271 = Method	#263.#270;	//  scala/runtime/BoxesRunTime.equals:(Ljava/lang/Object;Ljava/lang/Object;)Z
const #272 = Asciz	scala/Tuple2;
const #273 = class	#272;	//  scala/Tuple2
const #274 = Asciz	(Ljava/lang/Object;Ljava/lang/Object;)V;
const #275 = NameAndType	#7:#274;//  "<init>":(Ljava/lang/Object;Ljava/lang/Object;)V
const #276 = Method	#273.#275;	//  scala/Tuple2."<init>":(Ljava/lang/Object;Ljava/lang/Object;)V
const #277 = Asciz	scala/MatchError;
const #278 = class	#277;	//  scala/MatchError
const #279 = InterfaceMethod	#257.#32;	//  scala/collection/generic/SequenceTemplate.toString:()Ljava/lang/String;
const #280 = Asciz	(Ljava/lang/String;)V;
const #281 = NameAndType	#7:#280;//  "<init>":(Ljava/lang/String;)V
const #282 = Method	#278.#281;	//  scala/MatchError."<init>":(Ljava/lang/String;)V
const #283 = Asciz	temp4;
const #284 = Asciz	temp5;
const #285 = Asciz	Lscala/Some;;
const #286 = Asciz	temp6;
const #287 = Asciz	temp7;
const #288 = Asciz	temp8;
const #289 = Asciz	r;
const #290 = Asciz	(Lscala/BigDecimal;)Lscala/Tuple2<Lscala/BigDecimal;Lscala/BigDecimal;>;;
const #291 = Asciz	$div;
const #292 = Asciz	divide;
const #293 = NameAndType	#292:#205;//  divide:(Ljava/math/BigDecimal;Ljava/math/MathContext;)Ljava/math/BigDecimal;
const #294 = Method	#31.#293;	//  java/math/BigDecimal.divide:(Ljava/math/BigDecimal;Ljava/math/MathContext;)Ljava/math/BigDecimal;
const #295 = Asciz	$times;
const #296 = Asciz	multiply;
const #297 = NameAndType	#296:#205;//  multiply:(Ljava/math/BigDecimal;Ljava/math/MathContext;)Ljava/math/BigDecimal;
const #298 = Method	#31.#297;	//  java/math/BigDecimal.multiply:(Ljava/math/BigDecimal;Ljava/math/MathContext;)Ljava/math/BigDecimal;
const #299 = Asciz	$minus;
const #300 = Asciz	subtract;
const #301 = NameAndType	#300:#205;//  subtract:(Ljava/math/BigDecimal;Ljava/math/MathContext;)Ljava/math/BigDecimal;
const #302 = Method	#31.#301;	//  java/math/BigDecimal.subtract:(Ljava/math/BigDecimal;Ljava/math/MathContext;)Ljava/math/BigDecimal;
const #303 = Asciz	$plus;
const #304 = Asciz	add;
const #305 = NameAndType	#304:#205;//  add:(Ljava/math/BigDecimal;Ljava/math/MathContext;)Ljava/math/BigDecimal;
const #306 = Method	#31.#305;	//  java/math/BigDecimal.add:(Ljava/math/BigDecimal;Ljava/math/MathContext;)Ljava/math/BigDecimal;
const #307 = Asciz	$greater;
const #308 = Asciz	(Lscala/BigDecimal;)Z;
const #309 = Asciz	compare;
const #310 = Asciz	(Lscala/BigDecimal;)I;
const #311 = NameAndType	#309:#310;//  compare:(Lscala/BigDecimal;)I
const #312 = Method	#12.#311;	//  scala/BigDecimal.compare:(Lscala/BigDecimal;)I
const #313 = Asciz	$less;
const #314 = Asciz	$greater$eq;
const #315 = Asciz	$less$eq;
const #316 = Asciz	compareTo;
const #317 = Asciz	(Ljava/math/BigDecimal;)I;
const #318 = NameAndType	#316:#317;//  compareTo:(Ljava/math/BigDecimal;)I
const #319 = Method	#31.#318;	//  java/math/BigDecimal.compareTo:(Ljava/math/BigDecimal;)I
const #320 = Asciz	(Ljava/lang/Object;)Z;
const #321 = NameAndType	#268:#308;//  equals:(Lscala/BigDecimal;)Z
const #322 = Method	#12.#321;	//  scala/BigDecimal.equals:(Lscala/BigDecimal;)Z
const #323 = NameAndType	#96:#152;//  apply:(Ljava/math/BigDecimal;)Lscala/BigDecimal;
const #324 = Method	#165.#323;	//  scala/BigDecimal$.apply:(Ljava/math/BigDecimal;)Lscala/BigDecimal;
const #325 = Asciz	Ljava/lang/Object;;
const #326 = Asciz	temp1;
const #327 = Asciz	temp2;
const #328 = Asciz	temp3;
const #329 = Asciz	hashCode;
const #330 = NameAndType	#329:#111;//  hashCode:()I
const #331 = Method	#31.#330;	//  java/math/BigDecimal.hashCode:()I
const #332 = NameAndType	#7:#8;//  "<init>":(Ljava/math/BigDecimal;Ljava/math/MathContext;)V
const #333 = Method	#12.#332;	//  scala/BigDecimal."<init>":(Ljava/math/BigDecimal;Ljava/math/MathContext;)V
const #334 = Asciz	x;
const #335 = Asciz	(Ljava/math/BigDecimal;)V;
const #336 = Asciz	defaultMathContext;
const #337 = NameAndType	#336:#189;//  defaultMathContext:()Ljava/math/MathContext;
const #338 = Method	#165.#337;	//  scala/BigDecimal$.defaultMathContext:()Ljava/math/MathContext;
const #339 = Asciz	ScalaSig;
const #340 = Asciz	InnerClasses;
const #341 = Asciz	scala/Range;
const #342 = class	#341;	//  scala/Range
const #343 = Asciz	Partial;
const #344 = Asciz	scala/Enumeration;
const #345 = class	#344;	//  scala/Enumeration
const #346 = Asciz	Value;
const #347 = Asciz	scala/GenericRange$Inclusive;
const #348 = class	#347;	//  scala/GenericRange$Inclusive
const #349 = Asciz	scala/GenericRange;
const #350 = class	#349;	//  scala/GenericRange
const #351 = Asciz	Inclusive;
const #352 = Asciz	scala/GenericRange$Exclusive;
const #353 = class	#352;	//  scala/GenericRange$Exclusive
const #354 = Asciz	Exclusive;
const #355 = Asciz	$anonfun$to$1;
const #356 = Asciz	$anonfun$until$1;
const #357 = Asciz	scala/ScalaObject;
const #358 = class	#357;	//  scala/ScalaObject
const #359 = Asciz	java/io/Serializable;
const #360 = class	#359;	//  java/io/Serializable

{
public scala.BigDecimal(java.math.BigDecimal, java.math.MathContext);
  Code:
   Stack=2, Locals=3, Args_size=3
   0:	aload_0
   1:	aload_1
   2:	putfield	#14; //Field bigDecimal:Ljava/math/BigDecimal;
   5:	aload_0
   6:	aload_2
   7:	putfield	#16; //Field mc:Ljava/math/MathContext;
   10:	aload_0
   11:	invokespecial	#21; //Method java/lang/Number."<init>":()V
   14:	return
  LineNumberTable: 
   line 156: 0
   line 157: 5
   line 155: 10

  LocalVariableTable: 
   Start  Length  Slot  Name   Signature
   0      15      0    this       Lscala/BigDecimal;
   0      15      1    bigDecimal       Ljava/math/BigDecimal;
   0      15      2    mc       Ljava/math/MathContext;


public java.lang.String toString();
  Code:
   Stack=1, Locals=1, Args_size=1
   0:	aload_0
   1:	invokevirtual	#29; //Method bigDecimal:()Ljava/math/BigDecimal;
   4:	invokevirtual	#33; //Method java/math/BigDecimal.toString:()Ljava/lang/String;
   7:	areturn
  LineNumberTable: 
   line 387: 0


public scala.Option toBigIntExact();
  Code:
   Stack=5, Locals=2, Args_size=1
   0:	aconst_null
   1:	astore_1
   2:	new	#37; //class scala/Some
   5:	dup
   6:	new	#39; //class scala/BigInt
   9:	dup
   10:	aload_0
   11:	invokevirtual	#29; //Method bigDecimal:()Ljava/math/BigDecimal;
   14:	invokevirtual	#43; //Method java/math/BigDecimal.toBigIntegerExact:()Ljava/math/BigInteger;
   17:	invokespecial	#46; //Method scala/BigInt."<init>":(Ljava/math/BigInteger;)V
   20:	invokespecial	#49; //Method scala/Some."<init>":(Ljava/lang/Object;)V
   23:	astore_1
   24:	goto	32
   27:	pop
   28:	getstatic	#55; //Field scala/None$.MODULE$:Lscala/None$;
   31:	astore_1
   32:	aload_1
   33:	areturn
  Exception table:
   from   to  target type
     2    27    27   Class java/lang/ArithmeticException

  LineNumberTable: 
   line 382: 0
   line 383: 28

  LocalVariableTable: 
   Start  Length  Slot  Name   Signature
   0      34      0    this       Lscala/BigDecimal;
   2      31      1    exceptionResult1       Lscala/Option;

  Signature: length = 0x2
   00 3C 

public scala.BigInt toBigInt();
  Code:
   Stack=3, Locals=1, Args_size=1
   0:	new	#39; //class scala/BigInt
   3:	dup
   4:	aload_0
   5:	invokevirtual	#29; //Method bigDecimal:()Ljava/math/BigDecimal;
   8:	invokevirtual	#66; //Method java/math/BigDecimal.toBigInteger:()Ljava/math/BigInteger;
   11:	invokespecial	#46; //Method scala/BigInt."<init>":(Ljava/math/BigInteger;)V
   14:	areturn
  LineNumberTable: 
   line 376: 0


public scala.GenericRange$Inclusive to(scala.BigDecimal, scala.BigDecimal);
  Code:
   Stack=4, Locals=3, Args_size=3
   0:	getstatic	#73; //Field scala/Range$BigDecimal$.MODULE$:Lscala/Range$BigDecimal$;
   3:	aload_0
   4:	aload_1
   5:	aload_2
   6:	invokevirtual	#77; //Method scala/Range$BigDecimal$.inclusive:(Lscala/BigDecimal;Lscala/BigDecimal;Lscala/BigDecimal;)Lscala/GenericRange$Inclusive;
   9:	areturn
  LineNumberTable: 
   line 372: 0

  LocalVariableTable: 
   Start  Length  Slot  Name   Signature
   0      10      0    this       Lscala/BigDecimal;
   0      10      1    end       Lscala/BigDecimal;
   0      10      2    step       Lscala/BigDecimal;

  Signature: length = 0x2
   00 50 

public scala.Range$Partial to(scala.BigDecimal);
  Code:
   Stack=6, Locals=2, Args_size=2
   0:	new	#83; //class scala/Range$Partial
   3:	dup
   4:	new	#85; //class scala/BigDecimal$$anonfun$to$1
   7:	dup
   8:	aload_0
   9:	aload_1
   10:	invokespecial	#88; //Method scala/BigDecimal$$anonfun$to$1."<init>":(Lscala/BigDecimal;Lscala/BigDecimal;)V
   13:	invokespecial	#91; //Method scala/Range$Partial."<init>":(Lscala/Function1;)V
   16:	areturn
  LineNumberTable: 
   line 369: 0

  LocalVariableTable: 
   Start  Length  Slot  Name   Signature
   0      17      0    this       Lscala/BigDecimal;
   0      17      1    end$2       Lscala/BigDecimal;

  Signature: length = 0x2
   00 5D 

public scala.GenericRange$Exclusive until(scala.BigDecimal, scala.BigDecimal);
  Code:
   Stack=4, Locals=3, Args_size=3
   0:	getstatic	#73; //Field scala/Range$BigDecimal$.MODULE$:Lscala/Range$BigDecimal$;
   3:	aload_0
   4:	aload_1
   5:	aload_2
   6:	invokevirtual	#99; //Method scala/Range$BigDecimal$.apply:(Lscala/BigDecimal;Lscala/BigDecimal;Lscala/BigDecimal;)Lscala/GenericRange$Exclusive;
   9:	areturn
  LineNumberTable: 
   line 365: 0

  LocalVariableTable: 
   Start  Length  Slot  Name   Signature
   0      10      0    this       Lscala/BigDecimal;
   0      10      1    end       Lscala/BigDecimal;
   0      10      2    step       Lscala/BigDecimal;

  Signature: length = 0x2
   00 64 

public scala.Range$Partial until(scala.BigDecimal);
  Code:
   Stack=6, Locals=2, Args_size=2
   0:	new	#83; //class scala/Range$Partial
   3:	dup
   4:	new	#102; //class scala/BigDecimal$$anonfun$until$1
   7:	dup
   8:	aload_0
   9:	aload_1
   10:	invokespecial	#103; //Method scala/BigDecimal$$anonfun$until$1."<init>":(Lscala/BigDecimal;Lscala/BigDecimal;)V
   13:	invokespecial	#91; //Method scala/Range$Partial."<init>":(Lscala/Function1;)V
   16:	areturn
  LineNumberTable: 
   line 362: 0

  LocalVariableTable: 
   Start  Length  Slot  Name   Signature
   0      17      0    this       Lscala/BigDecimal;
   0      17      1    end$1       Lscala/BigDecimal;

  Signature: length = 0x2
   00 69 

public long longValueExact();
  Code:
   Stack=2, Locals=1, Args_size=1
   0:	aload_0
   1:	invokevirtual	#29; //Method bigDecimal:()Ljava/math/BigDecimal;
   4:	invokevirtual	#109; //Method java/math/BigDecimal.longValueExact:()J
   7:	lreturn
  LineNumberTable: 
   line 346: 0


public int intValueExact();
  Code:
   Stack=1, Locals=1, Args_size=1
   0:	aload_0
   1:	invokevirtual	#29; //Method bigDecimal:()Ljava/math/BigDecimal;
   4:	invokevirtual	#113; //Method java/math/BigDecimal.intValueExact:()I
   7:	ireturn
  LineNumberTable: 
   line 345: 0


public short shortValueExact();
  Code:
   Stack=1, Locals=1, Args_size=1
   0:	aload_0
   1:	invokevirtual	#29; //Method bigDecimal:()Ljava/math/BigDecimal;
   4:	invokevirtual	#117; //Method java/math/BigDecimal.shortValueExact:()S
   7:	ireturn
  LineNumberTable: 
   line 344: 0


public byte byteValueExact();
  Code:
   Stack=1, Locals=1, Args_size=1
   0:	aload_0
   1:	invokevirtual	#29; //Method bigDecimal:()Ljava/math/BigDecimal;
   4:	invokevirtual	#121; //Method java/math/BigDecimal.byteValueExact:()B
   7:	ireturn
  LineNumberTable: 
   line 343: 0


public double doubleValue();
  Code:
   Stack=2, Locals=1, Args_size=1
   0:	aload_0
   1:	invokevirtual	#29; //Method bigDecimal:()Ljava/math/BigDecimal;
   4:	invokevirtual	#125; //Method java/math/BigDecimal.doubleValue:()D
   7:	dreturn
  LineNumberTable: 
   line 339: 0


public float floatValue();
  Code:
   Stack=1, Locals=1, Args_size=1
   0:	aload_0
   1:	invokevirtual	#29; //Method bigDecimal:()Ljava/math/BigDecimal;
   4:	invokevirtual	#129; //Method java/math/BigDecimal.floatValue:()F
   7:	freturn
  LineNumberTable: 
   line 332: 0


public long longValue();
  Code:
   Stack=2, Locals=1, Args_size=1
   0:	aload_0
   1:	invokevirtual	#29; //Method bigDecimal:()Ljava/math/BigDecimal;
   4:	invokevirtual	#132; //Method java/math/BigDecimal.longValue:()J
   7:	lreturn
  LineNumberTable: 
   line 325: 0


public int intValue();
  Code:
   Stack=1, Locals=1, Args_size=1
   0:	aload_0
   1:	invokevirtual	#29; //Method bigDecimal:()Ljava/math/BigDecimal;
   4:	invokevirtual	#135; //Method java/math/BigDecimal.intValue:()I
   7:	ireturn
  LineNumberTable: 
   line 317: 0


public char charValue();
  Code:
   Stack=1, Locals=1, Args_size=1
   0:	aload_0
   1:	invokevirtual	#138; //Method intValue:()I
   4:	i2c
   5:	ireturn
  LineNumberTable: 
   line 309: 0


public short shortValue();
  Code:
   Stack=1, Locals=1, Args_size=1
   0:	aload_0
   1:	invokevirtual	#138; //Method intValue:()I
   4:	i2s
   5:	ireturn
  LineNumberTable: 
   line 302: 0


public byte byteValue();
  Code:
   Stack=1, Locals=1, Args_size=1
   0:	aload_0
   1:	invokevirtual	#138; //Method intValue:()I
   4:	i2b
   5:	ireturn
  LineNumberTable: 
   line 295: 0


public scala.BigDecimal setScale(int, scala.Enumeration$Value);
  Code:
   Stack=4, Locals=3, Args_size=3
   0:	aload_0
   1:	aload_0
   2:	invokevirtual	#29; //Method bigDecimal:()Ljava/math/BigDecimal;
   5:	iload_1
   6:	aload_2
   7:	invokevirtual	#147; //Method scala/Enumeration$Value.id:()I
   10:	invokevirtual	#150; //Method java/math/BigDecimal.setScale:(II)Ljava/math/BigDecimal;
   13:	invokespecial	#154; //Method bigdec2BigDecimal:(Ljava/math/BigDecimal;)Lscala/BigDecimal;
   16:	areturn
  LineNumberTable: 
   line 288: 0

  LocalVariableTable: 
   Start  Length  Slot  Name   Signature
   0      17      0    this       Lscala/BigDecimal;
   0      17      1    scale       I
   0      17      2    mode       Lscala/Enumeration$Value;


public scala.BigDecimal setScale(int);
  Code:
   Stack=3, Locals=2, Args_size=2
   0:	aload_0
   1:	aload_0
   2:	invokevirtual	#29; //Method bigDecimal:()Ljava/math/BigDecimal;
   5:	iload_1
   6:	invokevirtual	#162; //Method java/math/BigDecimal.setScale:(I)Ljava/math/BigDecimal;
   9:	invokespecial	#154; //Method bigdec2BigDecimal:(Ljava/math/BigDecimal;)Lscala/BigDecimal;
   12:	areturn
  LineNumberTable: 
   line 285: 0

  LocalVariableTable: 
   Start  Length  Slot  Name   Signature
   0      13      0    this       Lscala/BigDecimal;
   0      13      1    scale       I


public scala.BigDecimal apply(java.math.MathContext);
  Code:
   Stack=3, Locals=2, Args_size=2
   0:	getstatic	#168; //Field scala/BigDecimal$.MODULE$:Lscala/BigDecimal$;
   3:	aload_0
   4:	invokevirtual	#29; //Method bigDecimal:()Ljava/math/BigDecimal;
   7:	invokevirtual	#33; //Method java/math/BigDecimal.toString:()Ljava/lang/String;
   10:	aload_1
   11:	invokevirtual	#171; //Method scala/BigDecimal$.apply:(Ljava/lang/String;Ljava/math/MathContext;)Lscala/BigDecimal;
   14:	areturn
  LineNumberTable: 
   line 280: 0

  LocalVariableTable: 
   Start  Length  Slot  Name   Signature
   0      15      0    this       Lscala/BigDecimal;
   0      15      1    mc       Ljava/math/MathContext;


public scala.BigDecimal ulp();
  Code:
   Stack=2, Locals=1, Args_size=1
   0:	aload_0
   1:	aload_0
   2:	invokevirtual	#29; //Method bigDecimal:()Ljava/math/BigDecimal;
   5:	invokevirtual	#175; //Method java/math/BigDecimal.ulp:()Ljava/math/BigDecimal;
   8:	invokespecial	#154; //Method bigdec2BigDecimal:(Ljava/math/BigDecimal;)Lscala/BigDecimal;
   11:	areturn
  LineNumberTable: 
   line 276: 0


public int scale();
  Code:
   Stack=1, Locals=1, Args_size=1
   0:	aload_0
   1:	invokevirtual	#29; //Method bigDecimal:()Ljava/math/BigDecimal;
   4:	invokevirtual	#177; //Method java/math/BigDecimal.scale:()I
   7:	ireturn
  LineNumberTable: 
   line 272: 0


public scala.BigDecimal round(java.math.MathContext);
  Code:
   Stack=3, Locals=2, Args_size=2
   0:	aload_0
   1:	aload_0
   2:	invokevirtual	#29; //Method bigDecimal:()Ljava/math/BigDecimal;
   5:	aload_1
   6:	invokevirtual	#181; //Method java/math/BigDecimal.round:(Ljava/math/MathContext;)Ljava/math/BigDecimal;
   9:	invokespecial	#154; //Method bigdec2BigDecimal:(Ljava/math/BigDecimal;)Lscala/BigDecimal;
   12:	areturn
  LineNumberTable: 
   line 268: 0

  LocalVariableTable: 
   Start  Length  Slot  Name   Signature
   0      13      0    this       Lscala/BigDecimal;
   0      13      1    mc       Ljava/math/MathContext;


public int precision();
  Code:
   Stack=1, Locals=1, Args_size=1
   0:	aload_0
   1:	invokevirtual	#29; //Method bigDecimal:()Ljava/math/BigDecimal;
   4:	invokevirtual	#184; //Method java/math/BigDecimal.precision:()I
   7:	ireturn
  LineNumberTable: 
   line 264: 0


public int signum();
  Code:
   Stack=1, Locals=1, Args_size=1
   0:	aload_0
   1:	invokevirtual	#29; //Method bigDecimal:()Ljava/math/BigDecimal;
   4:	invokevirtual	#187; //Method java/math/BigDecimal.signum:()I
   7:	ireturn
  LineNumberTable: 
   line 260: 0


public scala.BigDecimal abs();
  Code:
   Stack=3, Locals=1, Args_size=1
   0:	aload_0
   1:	aload_0
   2:	invokevirtual	#29; //Method bigDecimal:()Ljava/math/BigDecimal;
   5:	aload_0
   6:	invokevirtual	#191; //Method mc:()Ljava/math/MathContext;
   9:	invokevirtual	#193; //Method java/math/BigDecimal.abs:(Ljava/math/MathContext;)Ljava/math/BigDecimal;
   12:	invokespecial	#154; //Method bigdec2BigDecimal:(Ljava/math/BigDecimal;)Lscala/BigDecimal;
   15:	areturn
  LineNumberTable: 
   line 253: 0


public scala.BigDecimal unary_$minus();
  Code:
   Stack=3, Locals=1, Args_size=1
   0:	aload_0
   1:	aload_0
   2:	invokevirtual	#29; //Method bigDecimal:()Ljava/math/BigDecimal;
   5:	aload_0
   6:	invokevirtual	#191; //Method mc:()Ljava/math/MathContext;
   9:	invokevirtual	#197; //Method java/math/BigDecimal.negate:(Ljava/math/MathContext;)Ljava/math/BigDecimal;
   12:	invokespecial	#154; //Method bigdec2BigDecimal:(Ljava/math/BigDecimal;)Lscala/BigDecimal;
   15:	areturn
  LineNumberTable: 
   line 249: 0


public scala.BigDecimal pow(int);
  Code:
   Stack=4, Locals=2, Args_size=2
   0:	aload_0
   1:	aload_0
   2:	invokevirtual	#29; //Method bigDecimal:()Ljava/math/BigDecimal;
   5:	iload_1
   6:	aload_0
   7:	invokevirtual	#191; //Method mc:()Ljava/math/MathContext;
   10:	invokevirtual	#201; //Method java/math/BigDecimal.pow:(ILjava/math/MathContext;)Ljava/math/BigDecimal;
   13:	invokespecial	#154; //Method bigdec2BigDecimal:(Ljava/math/BigDecimal;)Lscala/BigDecimal;
   16:	areturn
  LineNumberTable: 
   line 245: 0

  LocalVariableTable: 
   Start  Length  Slot  Name   Signature
   0      17      0    this       Lscala/BigDecimal;
   0      17      1    n       I


public scala.BigDecimal remainder(scala.BigDecimal);
  Code:
   Stack=4, Locals=2, Args_size=2
   0:	aload_0
   1:	aload_0
   2:	invokevirtual	#29; //Method bigDecimal:()Ljava/math/BigDecimal;
   5:	aload_1
   6:	invokevirtual	#29; //Method bigDecimal:()Ljava/math/BigDecimal;
   9:	aload_0
   10:	invokevirtual	#191; //Method mc:()Ljava/math/MathContext;
   13:	invokevirtual	#207; //Method java/math/BigDecimal.remainder:(Ljava/math/BigDecimal;Ljava/math/MathContext;)Ljava/math/BigDecimal;
   16:	invokespecial	#154; //Method bigdec2BigDecimal:(Ljava/math/BigDecimal;)Lscala/BigDecimal;
   19:	areturn
  LineNumberTable: 
   line 241: 0

  LocalVariableTable: 
   Start  Length  Slot  Name   Signature
   0      20      0    this       Lscala/BigDecimal;
   0      20      1    that       Lscala/BigDecimal;


public scala.BigDecimal max(scala.BigDecimal);
  Code:
   Stack=3, Locals=2, Args_size=2
   0:	aload_0
   1:	aload_0
   2:	invokevirtual	#29; //Method bigDecimal:()Ljava/math/BigDecimal;
   5:	aload_1
   6:	invokevirtual	#29; //Method bigDecimal:()Ljava/math/BigDecimal;
   9:	invokevirtual	#212; //Method java/math/BigDecimal.max:(Ljava/math/BigDecimal;)Ljava/math/BigDecimal;
   12:	invokespecial	#154; //Method bigdec2BigDecimal:(Ljava/math/BigDecimal;)Lscala/BigDecimal;
   15:	areturn
  LineNumberTable: 
   line 237: 0

  LocalVariableTable: 
   Start  Length  Slot  Name   Signature
   0      16      0    this       Lscala/BigDecimal;
   0      16      1    that       Lscala/BigDecimal;


public scala.BigDecimal min(scala.BigDecimal);
  Code:
   Stack=3, Locals=2, Args_size=2
   0:	aload_0
   1:	aload_0
   2:	invokevirtual	#29; //Method bigDecimal:()Ljava/math/BigDecimal;
   5:	aload_1
   6:	invokevirtual	#29; //Method bigDecimal:()Ljava/math/BigDecimal;
   9:	invokevirtual	#215; //Method java/math/BigDecimal.min:(Ljava/math/BigDecimal;)Ljava/math/BigDecimal;
   12:	invokespecial	#154; //Method bigdec2BigDecimal:(Ljava/math/BigDecimal;)Lscala/BigDecimal;
   15:	areturn
  LineNumberTable: 
   line 233: 0

  LocalVariableTable: 
   Start  Length  Slot  Name   Signature
   0      16      0    this       Lscala/BigDecimal;
   0      16      1    that       Lscala/BigDecimal;


public scala.BigDecimal quot(scala.BigDecimal);
  Code:
   Stack=4, Locals=2, Args_size=2
   0:	aload_0
   1:	aload_0
   2:	invokevirtual	#29; //Method bigDecimal:()Ljava/math/BigDecimal;
   5:	aload_1
   6:	invokevirtual	#29; //Method bigDecimal:()Ljava/math/BigDecimal;
   9:	aload_0
   10:	invokevirtual	#191; //Method mc:()Ljava/math/MathContext;
   13:	invokevirtual	#219; //Method java/math/BigDecimal.divideToIntegralValue:(Ljava/math/BigDecimal;Ljava/math/MathContext;)Ljava/math/BigDecimal;
   16:	invokespecial	#154; //Method bigdec2BigDecimal:(Ljava/math/BigDecimal;)Lscala/BigDecimal;
   19:	areturn
  LineNumberTable: 
   line 229: 0

  LocalVariableTable: 
   Start  Length  Slot  Name   Signature
   0      20      0    this       Lscala/BigDecimal;
   0      20      1    that       Lscala/BigDecimal;


public scala.Tuple2 $div$percent(scala.BigDecimal);
  Code:
   Stack=5, Locals=9, Args_size=2
   0:	aload_0
   1:	invokevirtual	#29; //Method bigDecimal:()Ljava/math/BigDecimal;
   4:	aload_1
   5:	invokevirtual	#29; //Method bigDecimal:()Ljava/math/BigDecimal;
   8:	aload_0
   9:	invokevirtual	#191; //Method mc:()Ljava/math/MathContext;
   12:	invokevirtual	#225; //Method java/math/BigDecimal.divideAndRemainder:(Ljava/math/BigDecimal;Ljava/math/MathContext;)[Ljava/math/BigDecimal;
   15:	astore_2
   16:	getstatic	#230; //Field scala/Array$.MODULE$:Lscala/Array$;
   19:	getstatic	#235; //Field scala/runtime/ScalaRunTime$.MODULE$:Lscala/runtime/ScalaRunTime$;
   22:	aload_2
   23:	invokevirtual	#239; //Method scala/runtime/ScalaRunTime$.boxArray:(Ljava/lang/Object;)Lscala/runtime/BoxedArray;
   26:	invokevirtual	#243; //Method scala/Array$.unapplySeq:(Lscala/collection/Sequence;)Lscala/Some;
   29:	astore_3
   30:	iconst_1
   31:	ifeq	154
   34:	aload_3
   35:	invokevirtual	#247; //Method scala/Some.get:()Ljava/lang/Object;
   38:	astore	5
   40:	aload	5
   42:	instanceof	#249; //class scala/runtime/BoxedArray
   45:	ifeq	64
   48:	getstatic	#235; //Field scala/runtime/ScalaRunTime$.MODULE$:Lscala/runtime/ScalaRunTime$;
   51:	aload	5
   53:	checkcast	#249; //class scala/runtime/BoxedArray
   56:	ldc	#31; //class java/math/BigDecimal
   58:	invokevirtual	#253; //Method scala/runtime/ScalaRunTime$.arrayValue:(Lscala/runtime/BoxedArray;Ljava/lang/Class;)Ljava/lang/Object;
   61:	goto	66
   64:	aload	5
   66:	checkcast	#255; //class "[Ljava/math/BigDecimal;"
   69:	astore	4
   71:	getstatic	#235; //Field scala/runtime/ScalaRunTime$.MODULE$:Lscala/runtime/ScalaRunTime$;
   74:	aload	4
   76:	invokevirtual	#239; //Method scala/runtime/ScalaRunTime$.boxArray:(Ljava/lang/Object;)Lscala/runtime/BoxedArray;
   79:	iconst_2
   80:	invokeinterface	#261,  2; //InterfaceMethod scala/collection/generic/SequenceTemplate.lengthCompare:(I)I
   85:	invokestatic	#267; //Method scala/runtime/BoxesRunTime.boxToInteger:(I)Ljava/lang/Integer;
   88:	iconst_0
   89:	invokestatic	#267; //Method scala/runtime/BoxesRunTime.boxToInteger:(I)Ljava/lang/Integer;
   92:	invokestatic	#271; //Method scala/runtime/BoxesRunTime.equals:(Ljava/lang/Object;Ljava/lang/Object;)Z
   95:	ifeq	134
   98:	aload	4
   100:	iconst_0
   101:	aaload
   102:	astore	6
   104:	aload	4
   106:	iconst_1
   107:	aaload
   108:	astore	7
   110:	aload	7
   112:	astore	8
   114:	new	#273; //class scala/Tuple2
   117:	dup
   118:	aload_0
   119:	aload	6
   121:	invokespecial	#154; //Method bigdec2BigDecimal:(Ljava/math/BigDecimal;)Lscala/BigDecimal;
   124:	aload_0
   125:	aload	8
   127:	invokespecial	#154; //Method bigdec2BigDecimal:(Ljava/math/BigDecimal;)Lscala/BigDecimal;
   130:	invokespecial	#276; //Method scala/Tuple2."<init>":(Ljava/lang/Object;Ljava/lang/Object;)V
   133:	areturn
   134:	new	#278; //class scala/MatchError
   137:	dup
   138:	getstatic	#235; //Field scala/runtime/ScalaRunTime$.MODULE$:Lscala/runtime/ScalaRunTime$;
   141:	aload_2
   142:	invokevirtual	#239; //Method scala/runtime/ScalaRunTime$.boxArray:(Ljava/lang/Object;)Lscala/runtime/BoxedArray;
   145:	invokeinterface	#279,  1; //InterfaceMethod scala/collection/generic/SequenceTemplate.toString:()Ljava/lang/String;
   150:	invokespecial	#282; //Method scala/MatchError."<init>":(Ljava/lang/String;)V
   153:	athrow
   154:	new	#278; //class scala/MatchError
   157:	dup
   158:	getstatic	#235; //Field scala/runtime/ScalaRunTime$.MODULE$:Lscala/runtime/ScalaRunTime$;
   161:	aload_2
   162:	invokevirtual	#239; //Method scala/runtime/ScalaRunTime$.boxArray:(Ljava/lang/Object;)Lscala/runtime/BoxedArray;
   165:	invokeinterface	#279,  1; //InterfaceMethod scala/collection/generic/SequenceTemplate.toString:()Ljava/lang/String;
   170:	invokespecial	#282; //Method scala/MatchError."<init>":(Ljava/lang/String;)V
   173:	athrow
  LineNumberTable: 
   line 222: 0
   line 223: 16
   line 294: 30
   line 223: 34
   line 222: 71
   line 45: 88
   line 223: 98
   line 222: 133

  LocalVariableTable: 
   Start  Length  Slot  Name   Signature
   0      174      0    this       Lscala/BigDecimal;
   0      174      1    that       Lscala/BigDecimal;
   16      158      2    temp4       [Ljava/math/BigDecimal;
   30      144      3    temp5       Lscala/Some;
   71      62      4    temp6       [Ljava/math/BigDecimal;
   134      20      4    temp6       [Ljava/math/BigDecimal;
   104      29      6    temp7       Ljava/math/BigDecimal;
   110      23      7    temp8       Ljava/math/BigDecimal;
   114      19      8    r       Ljava/math/BigDecimal;

  Signature: length = 0x2
   01 22 

public scala.BigDecimal $div(scala.BigDecimal);
  Code:
   Stack=4, Locals=2, Args_size=2
   0:	aload_0
   1:	aload_0
   2:	invokevirtual	#29; //Method bigDecimal:()Ljava/math/BigDecimal;
   5:	aload_1
   6:	invokevirtual	#29; //Method bigDecimal:()Ljava/math/BigDecimal;
   9:	aload_0
   10:	invokevirtual	#191; //Method mc:()Ljava/math/MathContext;
   13:	invokevirtual	#294; //Method java/math/BigDecimal.divide:(Ljava/math/BigDecimal;Ljava/math/MathContext;)Ljava/math/BigDecimal;
   16:	invokespecial	#154; //Method bigdec2BigDecimal:(Ljava/math/BigDecimal;)Lscala/BigDecimal;
   19:	areturn
  LineNumberTable: 
   line 216: 0

  LocalVariableTable: 
   Start  Length  Slot  Name   Signature
   0      20      0    this       Lscala/BigDecimal;
   0      20      1    that       Lscala/BigDecimal;


public scala.BigDecimal $times(scala.BigDecimal);
  Code:
   Stack=4, Locals=2, Args_size=2
   0:	aload_0
   1:	aload_0
   2:	invokevirtual	#29; //Method bigDecimal:()Ljava/math/BigDecimal;
   5:	aload_1
   6:	invokevirtual	#29; //Method bigDecimal:()Ljava/math/BigDecimal;
   9:	aload_0
   10:	invokevirtual	#191; //Method mc:()Ljava/math/MathContext;
   13:	invokevirtual	#298; //Method java/math/BigDecimal.multiply:(Ljava/math/BigDecimal;Ljava/math/MathContext;)Ljava/math/BigDecimal;
   16:	invokespecial	#154; //Method bigdec2BigDecimal:(Ljava/math/BigDecimal;)Lscala/BigDecimal;
   19:	areturn
  LineNumberTable: 
   line 212: 0

  LocalVariableTable: 
   Start  Length  Slot  Name   Signature
   0      20      0    this       Lscala/BigDecimal;
   0      20      1    that       Lscala/BigDecimal;


public scala.BigDecimal $minus(scala.BigDecimal);
  Code:
   Stack=4, Locals=2, Args_size=2
   0:	aload_0
   1:	aload_0
   2:	invokevirtual	#29; //Method bigDecimal:()Ljava/math/BigDecimal;
   5:	aload_1
   6:	invokevirtual	#29; //Method bigDecimal:()Ljava/math/BigDecimal;
   9:	aload_0
   10:	invokevirtual	#191; //Method mc:()Ljava/math/MathContext;
   13:	invokevirtual	#302; //Method java/math/BigDecimal.subtract:(Ljava/math/BigDecimal;Ljava/math/MathContext;)Ljava/math/BigDecimal;
   16:	invokespecial	#154; //Method bigdec2BigDecimal:(Ljava/math/BigDecimal;)Lscala/BigDecimal;
   19:	areturn
  LineNumberTable: 
   line 208: 0

  LocalVariableTable: 
   Start  Length  Slot  Name   Signature
   0      20      0    this       Lscala/BigDecimal;
   0      20      1    that       Lscala/BigDecimal;


public scala.BigDecimal $plus(scala.BigDecimal);
  Code:
   Stack=4, Locals=2, Args_size=2
   0:	aload_0
   1:	aload_0
   2:	invokevirtual	#29; //Method bigDecimal:()Ljava/math/BigDecimal;
   5:	aload_1
   6:	invokevirtual	#29; //Method bigDecimal:()Ljava/math/BigDecimal;
   9:	aload_0
   10:	invokevirtual	#191; //Method mc:()Ljava/math/MathContext;
   13:	invokevirtual	#306; //Method java/math/BigDecimal.add:(Ljava/math/BigDecimal;Ljava/math/MathContext;)Ljava/math/BigDecimal;
   16:	invokespecial	#154; //Method bigdec2BigDecimal:(Ljava/math/BigDecimal;)Lscala/BigDecimal;
   19:	areturn
  LineNumberTable: 
   line 204: 0

  LocalVariableTable: 
   Start  Length  Slot  Name   Signature
   0      20      0    this       Lscala/BigDecimal;
   0      20      1    that       Lscala/BigDecimal;


public boolean $greater(scala.BigDecimal);
  Code:
   Stack=2, Locals=2, Args_size=2
   0:	aload_0
   1:	aload_1
   2:	invokevirtual	#312; //Method compare:(Lscala/BigDecimal;)I
   5:	iconst_0
   6:	if_icmple	13
   9:	iconst_1
   10:	goto	14
   13:	iconst_0
   14:	ireturn
  LineNumberTable: 
   line 200: 0

  LocalVariableTable: 
   Start  Length  Slot  Name   Signature
   0      15      0    this       Lscala/BigDecimal;
   0      15      1    that       Lscala/BigDecimal;


public boolean $less(scala.BigDecimal);
  Code:
   Stack=2, Locals=2, Args_size=2
   0:	aload_0
   1:	aload_1
   2:	invokevirtual	#312; //Method compare:(Lscala/BigDecimal;)I
   5:	iconst_0
   6:	if_icmpge	13
   9:	iconst_1
   10:	goto	14
   13:	iconst_0
   14:	ireturn
  LineNumberTable: 
   line 196: 0

  LocalVariableTable: 
   Start  Length  Slot  Name   Signature
   0      15      0    this       Lscala/BigDecimal;
   0      15      1    that       Lscala/BigDecimal;


public boolean $greater$eq(scala.BigDecimal);
  Code:
   Stack=2, Locals=2, Args_size=2
   0:	aload_0
   1:	aload_1
   2:	invokevirtual	#312; //Method compare:(Lscala/BigDecimal;)I
   5:	iconst_0
   6:	if_icmplt	13
   9:	iconst_1
   10:	goto	14
   13:	iconst_0
   14:	ireturn
  LineNumberTable: 
   line 192: 0

  LocalVariableTable: 
   Start  Length  Slot  Name   Signature
   0      15      0    this       Lscala/BigDecimal;
   0      15      1    that       Lscala/BigDecimal;


public boolean $less$eq(scala.BigDecimal);
  Code:
   Stack=2, Locals=2, Args_size=2
   0:	aload_0
   1:	aload_1
   2:	invokevirtual	#312; //Method compare:(Lscala/BigDecimal;)I
   5:	iconst_0
   6:	if_icmpgt	13
   9:	iconst_1
   10:	goto	14
   13:	iconst_0
   14:	ireturn
  LineNumberTable: 
   line 188: 0

  LocalVariableTable: 
   Start  Length  Slot  Name   Signature
   0      15      0    this       Lscala/BigDecimal;
   0      15      1    that       Lscala/BigDecimal;


public int compare(scala.BigDecimal);
  Code:
   Stack=2, Locals=2, Args_size=2
   0:	aload_0
   1:	invokevirtual	#29; //Method bigDecimal:()Ljava/math/BigDecimal;
   4:	aload_1
   5:	invokevirtual	#29; //Method bigDecimal:()Ljava/math/BigDecimal;
   8:	invokevirtual	#319; //Method java/math/BigDecimal.compareTo:(Ljava/math/BigDecimal;)I
   11:	ireturn
  LineNumberTable: 
   line 184: 0

  LocalVariableTable: 
   Start  Length  Slot  Name   Signature
   0      12      0    this       Lscala/BigDecimal;
   0      12      1    that       Lscala/BigDecimal;


public boolean equals(scala.BigDecimal);
  Code:
   Stack=2, Locals=2, Args_size=2
   0:	aload_0
   1:	aload_1
   2:	invokevirtual	#312; //Method compare:(Lscala/BigDecimal;)I
   5:	iconst_0
   6:	if_icmpne	13
   9:	iconst_1
   10:	goto	14
   13:	iconst_0
   14:	ireturn
  LineNumberTable: 
   line 180: 0

  LocalVariableTable: 
   Start  Length  Slot  Name   Signature
   0      15      0    this       Lscala/BigDecimal;
   0      15      1    that       Lscala/BigDecimal;


public boolean equals(java.lang.Object);
  Code:
   Stack=3, Locals=5, Args_size=2
   0:	aload_1
   1:	astore_2
   2:	aload_2
   3:	instanceof	#12; //class scala/BigDecimal
   6:	ifeq	22
   9:	aload_2
   10:	checkcast	#12; //class scala/BigDecimal
   13:	astore_3
   14:	aload_0
   15:	aload_3
   16:	invokevirtual	#322; //Method equals:(Lscala/BigDecimal;)Z
   19:	goto	51
   22:	aload_2
   23:	instanceof	#31; //class java/math/BigDecimal
   26:	ifeq	50
   29:	aload_2
   30:	checkcast	#31; //class java/math/BigDecimal
   33:	astore	4
   35:	aload_0
   36:	getstatic	#168; //Field scala/BigDecimal$.MODULE$:Lscala/BigDecimal$;
   39:	aload	4
   41:	invokevirtual	#324; //Method scala/BigDecimal$.apply:(Ljava/math/BigDecimal;)Lscala/BigDecimal;
   44:	invokevirtual	#322; //Method equals:(Lscala/BigDecimal;)Z
   47:	goto	51
   50:	iconst_0
   51:	ireturn
  LineNumberTable: 
   line 172: 0
   line 173: 14
   line 172: 22
   line 174: 35
   line 175: 50
   line 172: 51

  LocalVariableTable: 
   Start  Length  Slot  Name   Signature
   0      52      0    this       Lscala/BigDecimal;
   0      52      1    that       Ljava/lang/Object;
   2      50      2    temp1       Ljava/lang/Object;
   14      5      3    temp2       Lscala/BigDecimal;
   35      12      4    temp3       Ljava/math/BigDecimal;


public int hashCode();
  Code:
   Stack=1, Locals=1, Args_size=1
   0:	aload_0
   1:	invokevirtual	#29; //Method bigDecimal:()Ljava/math/BigDecimal;
   4:	invokevirtual	#331; //Method java/math/BigDecimal.hashCode:()I
   7:	ireturn
  LineNumberTable: 
   line 167: 0


public scala.BigDecimal(java.math.BigDecimal);
  Code:
   Stack=3, Locals=2, Args_size=2
   0:	aload_0
   1:	aload_1
   2:	getstatic	#168; //Field scala/BigDecimal$.MODULE$:Lscala/BigDecimal$;
   5:	invokevirtual	#338; //Method scala/BigDecimal$.defaultMathContext:()Ljava/math/MathContext;
   8:	invokespecial	#333; //Method "<init>":(Ljava/math/BigDecimal;Ljava/math/MathContext;)V
   11:	return
  LineNumberTable: 
   line 160: 0

  LocalVariableTable: 
   Start  Length  Slot  Name   Signature
   0      12      0    this       Lscala/BigDecimal;
   0      12      1    bigDecimal       Ljava/math/BigDecimal;


public java.math.MathContext mc();
  Code:
   Stack=1, Locals=1, Args_size=1
   0:	aload_0
   1:	getfield	#16; //Field mc:Ljava/math/MathContext;
   4:	areturn
  LineNumberTable: 
   line 157: 0


public java.math.BigDecimal bigDecimal();
  Code:
   Stack=1, Locals=1, Args_size=1
   0:	aload_0
   1:	getfield	#14; //Field bigDecimal:Ljava/math/BigDecimal;
   4:	areturn
  LineNumberTable: 
   line 156: 0


}

