Compiled from "Cell.scala"
public class scala.Cell extends java.lang.Object implements scala.ScalaObject,scala.Product,java.io.Serializable
  SourceFile: "Cell.scala"
  Signature: length = 0x2
   00 6C 
  ScalaSig: length = 0x371
   05 00 FFFFFF81 08 06 04 01 02 40 05 02 04 43 65 6C 6C
   0A 01 03 01 05 73 63 61 6C 61 03 00 15 02 06 1B
   13 04 00 07 0F 13 10 02 08 0D 0D 01 09 0A 02 0A
   0B 01 04 6C 61 6E 67 0A 01 0C 01 04 6A 61 76 61
   09 02 0E 09 02 06 4F 62 6A 65 63 74 10 02 10 11
   0D 01 02 09 02 12 02 02 0B 53 63 61 6C 61 4F 62
   6A 65 63 74 10 02 10 14 09 02 15 02 02 07 50 72
   6F 64 75 63 74 08 08 17 00 FFFFFF82 FFFFFFCA FFFFFF80 FFFFFF84 00 18 01
   04 65 6C 65 6D 15 01 19 10 02 1A 1B 0C 00 04 08
   1C 00 FFFFFF84 FFFFFF80 FFFFFF84 FFFFFFC2 00 1D 02 01 54 11 02 1E 21 10
   02 10 1F 09 02 20 02 02 07 4E 6F 74 68 69 6E 67
   10 02 10 22 09 02 23 02 02 03 41 6E 79 08 08 25
   00 FFFFFF82 FFFFFF88 FFFFFFA0 FFFFFF80 04 19 01 05 65 6C 65 6D 20 08 05
   27 00 FFFFFF84 00 28 01 06 3C 69 6E 69 74 3E 14 02 29
   2A 10 03 10 00 19 08 05 17 26 FFFFFFC0 00 19 08 07 2C
   00 FFFFFF81 FFFFFF80 FFFFFF84 00 2D 01 04 63 6F 70 79 15 02 2E 31
   14 02 2F 32 10 03 10 00 30 10 02 1A 31 04 08 1C
   2B FFFFFF84 FFFFFF80 FFFFFF80 FFFFFFC2 00 1D 08 08 33 17 2B FFFFFF90 FFFFFF80 FFFFFFC0 00
   30 08 07 34 00 FFFFFF91 FFFFFF80 FFFFFF84 00 35 01 0E 63 6F 70 79
   24 64 65 66 61 75 6C 74 24 31 15 02 36 40 2A 02
   19 37 2B 01 38 10 02 39 3E 0D 01 3A 0A 02 3B 3C
   01 09 75 6E 63 68 65 63 6B 65 64 0A 02 3D 02 01
   0A 61 6E 6E 6F 74 61 74 69 6F 6E 09 02 3F 3A 02
   11 75 6E 63 68 65 63 6B 65 64 56 61 72 69 61 6E
   63 65 04 08 1C 33 FFFFFF84 FFFFFF80 FFFFFF80 FFFFFFC2 00 1D 08 08 42 00
   FFFFFF84 FFFFFF80 FFFFFF80 FFFFFF84 20 43 01 08 68 61 73 68 43 6F 64 65
   14 01 44 10 02 10 45 09 02 46 02 02 03 49 6E 74
   08 08 48 00 FFFFFF84 FFFFFF80 FFFFFF80 FFFFFF84 20 49 01 08 74 6F 53 74
   72 69 6E 67 14 01 4A 10 02 4B 4E 0E 02 10 4C 09
   02 4D 02 01 06 50 72 65 64 65 66 09 02 4F 50 02
   06 53 74 72 69 6E 67 0A 02 4D 02 08 08 52 00 FFFFFF84
   FFFFFF80 FFFFFF80 FFFFFF84 20 53 01 06 65 71 75 61 6C 73 14 02 54
   57 10 02 10 55 09 02 56 02 02 07 42 6F 6F 6C 65
   61 6E 08 07 58 51 FFFFFF81 FFFFFF80 FFFFFFC0 00 21 01 03 78 24 31
   08 08 5A 00 FFFFFF84 FFFFFF80 FFFFFF80 FFFFFF84 20 5B 01 0D 70 72 6F 64
   75 63 74 50 72 65 66 69 78 15 01 5C 10 02 08 5D
   09 02 4F 09 08 08 5F 00 FFFFFF84 FFFFFF80 FFFFFF80 FFFFFF84 20 60 01 0C
   70 72 6F 64 75 63 74 41 72 69 74 79 15 01 44 08
   08 62 00 FFFFFF84 FFFFFF80 FFFFFF80 FFFFFF84 20 63 01 0E 70 72 6F 64 75
   63 74 45 6C 65 6D 65 6E 74 14 02 21 64 08 07 58
   61 FFFFFF81 FFFFFF80 FFFFFFC0 00 44 08 08 66 00 FFFFFF84 FFFFFF80 FFFFFF80 FFFFFF84 20 67
   01 08 63 61 6E 45 71 75 61 6C 14 02 54 68 08 07
   58 65 FFFFFF81 FFFFFF80 FFFFFFC0 00 21 28 02 00 6A 10 02 10 6B 09
   02 6C 02 02 0C 73 65 72 69 61 6C 69 7A 61 62 6C
   65 07 07 6E 02 FFFFFF81 FFFFFF80 FFFFFF88 02 6F 01 04 43 65 6C 6C
   10 02 10 70 06 08 01 02 FFFFFF84 FFFFFF81 FFFFFF80 FFFFFF88 02 71 13 03
   70 07 0F 08 05 27 70 FFFFFF84 00 73 14 01 6F 08 07 75
   70 FFFFFF81 FFFFFF80 FFFFFF84 40 76 01 05 61 70 70 6C 79 15 02 77
   7A 14 02 78 7B 10 03 10 00 79 10 02 1A 7A 04 08
   1C 74 FFFFFF84 FFFFFF80 FFFFFF80 FFFFFFC2 00 1D 08 05 17 74 FFFFFFC0 00 79 08
   07 7D 70 FFFFFF81 FFFFFF80 FFFFFF84 40 7E 01 07 75 6E 61 70 70 6C
   79 15 03 7F FFFFFF81 04 14 04 FFFFFF81 00 FFFFFF81 05 10 05 10 FFFFFF81
   01 FFFFFF81 03 09 03 FFFFFF81 02 02 02 04 53 6F 6D 65 10 03
   1A FFFFFF81 04 04 08 1C 7C FFFFFF84 FFFFFF80 FFFFFF80 FFFFFFC2 00 1D 08 07 FFFFFF81
   06 7C FFFFFFC0 00 FFFFFF81 07 01 03 78 24 30 10 04 10 00 FFFFFF81
   03 
  minor version: 0
  major version: 49
  Constant pool:
Asciz	SourceFile;
Asciz	Cell.scala;
Asciz	elem;
Asciz	Ljava/lang/Object;;
Asciz	TT;;
Asciz	Signature;
Asciz	<init>;
Asciz	(Ljava/lang/Object;)V;
Asciz	Code;
Asciz	LineNumberTable;
Asciz	scala/Cell;
class	scala/Cell
NameAndType	elem:Ljava/lang/Object;
Field	scala/Cell.elem:Ljava/lang/Object;
Asciz	java/lang/Object;
class	java/lang/Object
Asciz	()V;
NameAndType	"<init>":()V
Method	java/lang/Object."<init>":()V
Asciz	scala/Product$class;
class	scala/Product$class
Asciz	$init$;
Asciz	(Lscala/Product;)V;
NameAndType	$init$:(Lscala/Product;)V
Method	scala/Product$class.$init$:(Lscala/Product;)V
Asciz	this;
Asciz	Lscala/Cell;;
Asciz	LocalVariableTable;
Asciz	(TT;)V;
Asciz	gd1$1;
Asciz	(Ljava/lang/Object;)Z;
Asciz	()Ljava/lang/Object;;
NameAndType	elem:()Ljava/lang/Object;
Method	scala/Cell.elem:()Ljava/lang/Object;
Asciz	java/lang/Number;
class	java/lang/Number
Asciz	java/lang/Character;
class	java/lang/Character
Asciz	scala/runtime/BoxesRunTime;
class	scala/runtime/BoxesRunTime
Asciz	equals2;
Asciz	(Ljava/lang/Object;Ljava/lang/Object;)Z;
NameAndType	equals2:(Ljava/lang/Object;Ljava/lang/Object;)Z
Method	scala/runtime/BoxesRunTime.equals2:(Ljava/lang/Object;Ljava/lang/Object;)Z
Asciz	equals;
NameAndType	equals:(Ljava/lang/Object;)Z
Method	java/lang/Object.equals:(Ljava/lang/Object;)Z
Asciz	y0;
Asciz	canEqual;
Asciz	productElement;
Asciz	(I)Ljava/lang/Object;;
Asciz	java/lang/IndexOutOfBoundsException;
class	java/lang/IndexOutOfBoundsException
Asciz	boxToInteger;
Asciz	(I)Ljava/lang/Integer;;
NameAndType	boxToInteger:(I)Ljava/lang/Integer;
Method	scala/runtime/BoxesRunTime.boxToInteger:(I)Ljava/lang/Integer;
Asciz	toString;
Asciz	()Ljava/lang/String;;
NameAndType	toString:()Ljava/lang/String;
Method	java/lang/Object.toString:()Ljava/lang/String;
Asciz	(Ljava/lang/String;)V;
NameAndType	"<init>":(Ljava/lang/String;)V
Method	java/lang/IndexOutOfBoundsException."<init>":(Ljava/lang/String;)V
Asciz	productArity;
Asciz	()I;
Asciz	productPrefix;
Asciz	Cell;
String	Cell
NameAndType	gd1$1:(Ljava/lang/Object;)Z
Method	scala/Cell.gd1$1:(Ljava/lang/Object;)Z
Asciz	scala/Equals;
class	scala/Equals
NameAndType	canEqual:(Ljava/lang/Object;)Z
InterfaceMethod	scala/Equals.canEqual:(Ljava/lang/Object;)Z
Asciz	temp2;
Asciz	temp3;
Asciz	scala/runtime/ScalaRunTime$;
class	scala/runtime/ScalaRunTime$
Asciz	MODULE$;
Asciz	Lscala/runtime/ScalaRunTime$;;
NameAndType	MODULE$:Lscala/runtime/ScalaRunTime$;
Field	scala/runtime/ScalaRunTime$.MODULE$:Lscala/runtime/ScalaRunTime$;
Asciz	_toString;
Asciz	(Lscala/Product;)Ljava/lang/String;;
NameAndType	_toString:(Lscala/Product;)Ljava/lang/String;
Method	scala/runtime/ScalaRunTime$._toString:(Lscala/Product;)Ljava/lang/String;
Asciz	hashCode;
Asciz	_hashCode;
Asciz	(Lscala/Product;)I;
NameAndType	_hashCode:(Lscala/Product;)I
Method	scala/runtime/ScalaRunTime$._hashCode:(Lscala/Product;)I
Asciz	copy;
Asciz	(Ljava/lang/Object;)Lscala/Cell;;
NameAndType	"<init>":(Ljava/lang/Object;)V
Method	scala/Cell."<init>":(Ljava/lang/Object;)V
Asciz	()TT;;
Asciz	copy$default$1;
Asciz	productElements;
Asciz	()Lscala/collection/Iterator;;
Asciz	(Lscala/Product;)Lscala/collection/Iterator;;
NameAndType	productElements:(Lscala/Product;)Lscala/collection/Iterator;
Method	scala/Product$class.productElements:(Lscala/Product;)Lscala/collection/Iterator;
Asciz	Deprecated;
Asciz	productIterator;
NameAndType	productIterator:(Lscala/Product;)Lscala/collection/Iterator;
Method	scala/Product$class.productIterator:(Lscala/Product;)Lscala/collection/Iterator;
Asciz	<T:Ljava/lang/Object;>Ljava/lang/Object;Lscala/ScalaObject;Lscala/Product;;
Asciz	ScalaSig;
Asciz	scala/ScalaObject;
class	scala/ScalaObject
Asciz	scala/Product;
class	scala/Product
Asciz	java/io/Serializable;
class	java/io/Serializable

{
private final java.lang.Object elem;
  Signature: Ljava/lang/Object;
  Signature: length = 0x2
   00 05 

public scala.Cell(java.lang.Object);
  Signature: (Ljava/lang/Object;)V
  Code:
   Stack=2, Locals=2, Args_size=2
	aload_0
	aload_1
	putfield	Field elem:Ljava/lang/Object;
	aload_0
	invokespecial	Method java/lang/Object."<init>":()V
	aload_0
	invokestatic	Method scala/Product$class.$init$:(Lscala/Product;)V
	return
  Labels:
  LocalVariableTable: 
   Start  Length  Slot  Name   Signature
   0      14      0    this       Lscala/Cell;
   0      14      1    elem       Ljava/lang/Object;

  Signature: length = 0x2
   00 1D 

private final boolean gd1$1(java.lang.Object);
  Signature: (Ljava/lang/Object;)Z
  Code:
   Stack=2, Locals=3, Args_size=2
	aload_0
	invokevirtual	Method elem:()Ljava/lang/Object;
	astore_2
	aload_1
	aload_2
	if_acmpne	l1 // aload_1
	iconst_1
	goto	l2 // ifeq
l1	aload_1
	ifnonnull	l3 // aload_1
	iconst_0
	goto	l2 // ifeq
l3	aload_1
	instanceof	class java/lang/Number
	ifne	l4 // aload_1
	aload_1
	instanceof	class java/lang/Character
	ifeq	l5 // aload_1
l4	aload_1
	aload_2
	invokestatic	Method scala/runtime/BoxesRunTime.equals2:(Ljava/lang/Object;Ljava/lang/Object;)Z
	goto	l2 // ifeq
l5	aload_1
	aload_2
	invokevirtual	Method java/lang/Object.equals:(Ljava/lang/Object;)Z
l2	ifeq	l6 // iconst_0
	iconst_1
	goto	l7 // ireturn
l6	iconst_0
l7	ireturn
  Labels:
   	l1 = 14 // aload_1
   	l3 = 22 // aload_1
   	l4 = 36 // aload_1
   	l5 = 44 // aload_1
   	l2 = 49 // ifeq
   	l6 = 56 // iconst_0
   	l7 = 57 // ireturn
  LocalVariableTable: 
   Start  Length  Slot  Name   Signature
   0      58      0    this       Lscala/Cell;
   10      42      2    y0       Ljava/lang/Object;


public boolean canEqual(java.lang.Object);
  Signature: (Ljava/lang/Object;)Z
  Code:
   Stack=1, Locals=2, Args_size=2
	aload_1
	instanceof	class scala/Cell
	ireturn
  Labels:

public java.lang.Object productElement(int);
  Signature: (I)Ljava/lang/Object;
  Code:
   Stack=3, Locals=2, Args_size=2
	iload_1
	iconst_0
	if_icmpne	l1 // new
	aload_0
	invokevirtual	Method elem:()Ljava/lang/Object;
	areturn
l1	new	class java/lang/IndexOutOfBoundsException
	dup
	iload_1
	invokestatic	Method scala/runtime/BoxesRunTime.boxToInteger:(I)Ljava/lang/Integer;
	invokevirtual	Method java/lang/Object.toString:()Ljava/lang/String;
	invokespecial	Method java/lang/IndexOutOfBoundsException."<init>":(Ljava/lang/String;)V
	athrow
  Labels:
   	l1 = 10 // new

public int productArity();
  Signature: ()I
  Code:
   Stack=1, Locals=1, Args_size=1
	iconst_1
	ireturn
  Labels:

public java.lang.String productPrefix();
  Signature: ()Ljava/lang/String;
  Code:
   Stack=1, Locals=1, Args_size=1
	ldc	String Cell
	areturn
  Labels:

public boolean equals(java.lang.Object);
  Signature: (Ljava/lang/Object;)Z
  Code:
   Stack=2, Locals=4, Args_size=2
	aload_0
	aload_1
	if_acmpeq	l1 // iconst_1
	aload_1
	instanceof	class scala/Cell
	ifeq	l2 // iconst_0
	aload_1
	checkcast	class scala/Cell
	astore_2
	aload_2
	invokevirtual	Method elem:()Ljava/lang/Object;
	astore_3
	aload_0
	aload_3
	invokespecial	Method gd1$1:(Ljava/lang/Object;)Z
	ifeq	l3 // iconst_0
	aload_1
	checkcast	class scala/Cell
	aload_0
	invokeinterface	InterfaceMethod scala/Equals.canEqual:(Ljava/lang/Object;)Z
	goto	l4 // ifeq
l3	iconst_0
	goto	l4 // ifeq
l2	iconst_0
l4	ifeq	l5 // iconst_0
l1	iconst_1
	goto	l6 // ireturn
l5	iconst_0
l6	ireturn
  Labels:
   	l3 = 43 // iconst_0
   	l2 = 47 // iconst_0
   	l4 = 48 // ifeq
   	l1 = 51 // iconst_1
   	l5 = 55 // iconst_0
   	l6 = 56 // ireturn
  LocalVariableTable: 
   Start  Length  Slot  Name   Signature
   0      57      0    this       Lscala/Cell;
   17      30      2    temp2       Lscala/Cell;
   22      25      3    temp3       Ljava/lang/Object;


public java.lang.String toString();
  Signature: ()Ljava/lang/String;
  Code:
   Stack=2, Locals=1, Args_size=1
	getstatic	Field scala/runtime/ScalaRunTime$.MODULE$:Lscala/runtime/ScalaRunTime$;
	aload_0
	invokevirtual	Method scala/runtime/ScalaRunTime$._toString:(Lscala/Product;)Ljava/lang/String;
	areturn
  Labels:

public int hashCode();
  Signature: ()I
  Code:
   Stack=2, Locals=1, Args_size=1
	getstatic	Field scala/runtime/ScalaRunTime$.MODULE$:Lscala/runtime/ScalaRunTime$;
	aload_0
	invokevirtual	Method scala/runtime/ScalaRunTime$._hashCode:(Lscala/Product;)I
	ireturn
  Labels:

public scala.Cell copy(java.lang.Object);
  Signature: (Ljava/lang/Object;)Lscala/Cell;
  Code:
   Stack=3, Locals=2, Args_size=2
	new	class scala/Cell
	dup
	aload_1
	invokespecial	Method "<init>":(Ljava/lang/Object;)V
	areturn
  Labels:
  LocalVariableTable: 
   Start  Length  Slot  Name   Signature
   0      9      0    this       Lscala/Cell;
   0      9      1    elem       Ljava/lang/Object;


public java.lang.Object elem();
  Signature: ()Ljava/lang/Object;
  Code:
   Stack=1, Locals=1, Args_size=1
	aload_0
	getfield	Field elem:Ljava/lang/Object;
	areturn
  Labels:
  Signature: length = 0x2
   00 61 

public java.lang.Object copy$default$1();
  Signature: ()Ljava/lang/Object;
  Code:
   Stack=1, Locals=1, Args_size=1
	aload_0
	invokevirtual	Method elem:()Ljava/lang/Object;
	areturn
  Labels:

public scala.collection.Iterator productElements();
  Signature: ()Lscala/collection/Iterator;
  Code:
   Stack=1, Locals=1, Args_size=1
	aload_0
	invokestatic	Method scala/Product$class.productElements:(Lscala/Product;)Lscala/collection/Iterator;
	areturn
  Labels:
  Deprecated: true

public scala.collection.Iterator productIterator();
  Signature: ()Lscala/collection/Iterator;
  Code:
   Stack=1, Locals=1, Args_size=1
	aload_0
	invokestatic	Method scala/Product$class.productIterator:(Lscala/Product;)Lscala/collection/Iterator;
	areturn
  Labels:

}

