Compiled from "Cell.scala"
public class scala.Cell extends java.lang.Object implements scala.ScalaObject,scala.Product,java.io.Serializable
  SourceFile: "Cell.scala"
  Signature: length = 0x2
   00 6F 
  ScalaSig: length = 0x371
   05 00 FFFFFF81 08 06 04 01 02 40 05 02 04 43 65 6C 6C
   0A 01 03 01 05 73 63 61 6C 61 03 00 15 02 06 1B
   13 04 00 07 0F 13 10 02 08 0D 0D 01 09 0A 02 0A
   0B 01 04 6C 61 6E 67 0A 01 0C 01 04 6A 61 76 61
   09 02 0E 09 02 06 4F 62 6A 65 63 74 10 02 10 11
   0D 01 02 09 02 12 02 02 0B 53 63 61 6C 61 4F 62
   6A 65 63 74 10 02 10 14 09 02 15 02 02 07 50 72
   6F 64 75 63 74 08 08 17 00 FFFFFF82 FFFFFFCA FFFFFF80 FFFFFF84 00 18 01
   04 65 6C 65 6D 15 01 19 10 02 1A 1B 0C 00 04 08
   1C 00 FFFFFF84 FFFFFF80 FFFFFF84 FFFFFFC2 00 1D 02 01 54 11 02 1E 21 10
   02 10 1F 09 02 20 02 02 07 4E 6F 74 68 69 6E 67
   10 02 10 22 09 02 23 02 02 03 41 6E 79 08 08 25
   00 FFFFFF82 FFFFFF88 FFFFFFA0 FFFFFF80 04 19 01 05 65 6C 65 6D 20 08 05
   27 00 FFFFFF84 00 28 01 06 3C 69 6E 69 74 3E 14 02 29
   2A 10 03 10 00 19 08 05 17 26 FFFFFFC0 00 19 08 07 2C
   00 FFFFFF81 FFFFFF80 FFFFFF84 00 2D 01 04 63 6F 70 79 15 02 2E 31
   14 02 2F 32 10 03 10 00 30 10 02 1A 31 04 08 1C
   2B FFFFFF84 FFFFFF80 FFFFFF80 FFFFFFC2 00 1D 08 08 33 17 2B FFFFFF90 FFFFFF80 FFFFFFC0 00
   30 08 07 34 00 FFFFFF91 FFFFFF80 FFFFFF84 00 35 01 0E 63 6F 70 79
   24 64 65 66 61 75 6C 74 24 31 15 02 36 40 2A 02
   19 37 2B 01 38 10 02 39 3E 0D 01 3A 0A 02 3B 3C
   01 09 75 6E 63 68 65 63 6B 65 64 0A 02 3D 02 01
   0A 61 6E 6E 6F 74 61 74 69 6F 6E 09 02 3F 3A 02
   11 75 6E 63 68 65 63 6B 65 64 56 61 72 69 61 6E
   63 65 04 08 1C 33 FFFFFF84 FFFFFF80 FFFFFF80 FFFFFFC2 00 1D 08 08 42 00
   FFFFFF84 FFFFFF80 FFFFFF80 FFFFFF84 20 43 01 08 68 61 73 68 43 6F 64 65
   14 01 44 10 02 10 45 09 02 46 02 02 03 49 6E 74
   08 08 48 00 FFFFFF84 FFFFFF80 FFFFFF80 FFFFFF84 20 49 01 08 74 6F 53 74
   72 69 6E 67 14 01 4A 10 02 4B 4E 0E 02 10 4C 09
   02 4D 02 01 06 50 72 65 64 65 66 09 02 4F 50 02
   06 53 74 72 69 6E 67 0A 02 4D 02 08 08 52 00 FFFFFF84
   FFFFFF80 FFFFFF80 FFFFFF84 20 53 01 06 65 71 75 61 6C 73 14 02 54
   57 10 02 10 55 09 02 56 02 02 07 42 6F 6F 6C 65
   61 6E 08 07 58 51 FFFFFF81 FFFFFF80 FFFFFFC0 00 21 01 03 78 24 31
   08 08 5A 00 FFFFFF84 FFFFFF80 FFFFFF80 FFFFFF84 20 5B 01 0D 70 72 6F 64
   75 63 74 50 72 65 66 69 78 15 01 5C 10 02 08 5D
   09 02 4F 09 08 08 5F 00 FFFFFF84 FFFFFF80 FFFFFF80 FFFFFF84 20 60 01 0C
   70 72 6F 64 75 63 74 41 72 69 74 79 15 01 44 08
   08 62 00 FFFFFF84 FFFFFF80 FFFFFF80 FFFFFF84 20 63 01 0E 70 72 6F 64 75
   63 74 45 6C 65 6D 65 6E 74 14 02 21 64 08 07 58
   61 FFFFFF81 FFFFFF80 FFFFFFC0 00 44 08 08 66 00 FFFFFF84 FFFFFF80 FFFFFF80 FFFFFF84 20 67
   01 08 63 61 6E 45 71 75 61 6C 14 02 54 68 08 07
   58 65 FFFFFF81 FFFFFF80 FFFFFFC0 00 21 28 02 00 6A 10 02 10 6B 09
   02 6C 02 02 0C 73 65 72 69 61 6C 69 7A 61 62 6C
   65 07 07 6E 02 FFFFFF81 FFFFFF80 FFFFFF88 02 6F 01 04 43 65 6C 6C
   10 02 10 70 06 08 01 02 FFFFFF84 FFFFFF81 FFFFFF80 FFFFFF88 02 71 13 03
   70 07 0F 08 05 27 70 FFFFFF84 00 73 14 01 6F 08 07 75
   70 FFFFFF81 FFFFFF80 FFFFFF84 40 76 01 05 61 70 70 6C 79 15 02 77
   7A 14 02 78 7B 10 03 10 00 79 10 02 1A 7A 04 08
   1C 74 FFFFFF84 FFFFFF80 FFFFFF80 FFFFFFC2 00 1D 08 05 17 74 FFFFFFC0 00 79 08
   07 7D 70 FFFFFF81 FFFFFF80 FFFFFF84 40 7E 01 07 75 6E 61 70 70 6C
   79 15 03 7F FFFFFF81 04 14 04 FFFFFF81 00 FFFFFF81 05 10 05 10 FFFFFF81
   01 FFFFFF81 03 09 03 FFFFFF81 02 02 02 04 53 6F 6D 65 10 03
   1A FFFFFF81 04 04 08 1C 7C FFFFFF84 FFFFFF80 FFFFFF80 FFFFFFC2 00 1D 08 07 FFFFFF81
   06 7C FFFFFFC0 00 FFFFFF81 07 01 03 78 24 30 10 04 10 00 FFFFFF81
   03 
  minor version: 0
  major version: 49
  Constant pool:
const #1 = Asciz	SourceFile;
const #2 = Asciz	Cell.scala;
const #3 = Asciz	elem;
const #4 = Asciz	Ljava/lang/Object;;
const #5 = Asciz	TT;;
const #6 = Asciz	Signature;
const #7 = Asciz	<init>;
const #8 = Asciz	(Ljava/lang/Object;)V;
const #9 = Asciz	Code;
const #10 = Asciz	LineNumberTable;
const #11 = Asciz	scala/Cell;
const #12 = class	#11;	//  scala/Cell
const #13 = NameAndType	#3:#4;//  elem:Ljava/lang/Object;
const #14 = Field	#12.#13;	//  scala/Cell.elem:Ljava/lang/Object;
const #15 = Asciz	java/lang/Object;
const #16 = class	#15;	//  java/lang/Object
const #17 = Asciz	()V;
const #18 = NameAndType	#7:#17;//  "<init>":()V
const #19 = Method	#16.#18;	//  java/lang/Object."<init>":()V
const #20 = Asciz	scala/Product$class;
const #21 = class	#20;	//  scala/Product$class
const #22 = Asciz	$init$;
const #23 = Asciz	(Lscala/Product;)V;
const #24 = NameAndType	#22:#23;//  $init$:(Lscala/Product;)V
const #25 = Method	#21.#24;	//  scala/Product$class.$init$:(Lscala/Product;)V
const #26 = Asciz	this;
const #27 = Asciz	Lscala/Cell;;
const #28 = Asciz	LocalVariableTable;
const #29 = Asciz	(TT;)V;
const #30 = Asciz	gd1$1;
const #31 = Asciz	(Ljava/lang/Object;)Z;
const #32 = Asciz	()Ljava/lang/Object;;
const #33 = NameAndType	#3:#32;//  elem:()Ljava/lang/Object;
const #34 = Method	#12.#33;	//  scala/Cell.elem:()Ljava/lang/Object;
const #35 = Asciz	java/lang/Number;
const #36 = class	#35;	//  java/lang/Number
const #37 = Asciz	java/lang/Character;
const #38 = class	#37;	//  java/lang/Character
const #39 = Asciz	scala/runtime/BoxesRunTime;
const #40 = class	#39;	//  scala/runtime/BoxesRunTime
const #41 = Asciz	equals2;
const #42 = Asciz	(Ljava/lang/Object;Ljava/lang/Object;)Z;
const #43 = NameAndType	#41:#42;//  equals2:(Ljava/lang/Object;Ljava/lang/Object;)Z
const #44 = Method	#40.#43;	//  scala/runtime/BoxesRunTime.equals2:(Ljava/lang/Object;Ljava/lang/Object;)Z
const #45 = Asciz	equals;
const #46 = NameAndType	#45:#31;//  equals:(Ljava/lang/Object;)Z
const #47 = Method	#16.#46;	//  java/lang/Object.equals:(Ljava/lang/Object;)Z
const #48 = Asciz	y0;
const #49 = Asciz	canEqual;
const #50 = Asciz	productElement;
const #51 = Asciz	(I)Ljava/lang/Object;;
const #52 = Asciz	scala/MatchError;
const #53 = class	#52;	//  scala/MatchError
const #54 = Asciz	boxToInteger;
const #55 = Asciz	(I)Ljava/lang/Integer;;
const #56 = NameAndType	#54:#55;//  boxToInteger:(I)Ljava/lang/Integer;
const #57 = Method	#40.#56;	//  scala/runtime/BoxesRunTime.boxToInteger:(I)Ljava/lang/Integer;
const #58 = Asciz	toString;
const #59 = Asciz	()Ljava/lang/String;;
const #60 = NameAndType	#58:#59;//  toString:()Ljava/lang/String;
const #61 = Method	#16.#60;	//  java/lang/Object.toString:()Ljava/lang/String;
const #62 = Asciz	(Ljava/lang/String;)V;
const #63 = NameAndType	#7:#62;//  "<init>":(Ljava/lang/String;)V
const #64 = Method	#53.#63;	//  scala/MatchError."<init>":(Ljava/lang/String;)V
const #65 = Asciz	java/lang/IndexOutOfBoundsException;
const #66 = class	#65;	//  java/lang/IndexOutOfBoundsException
const #67 = Method	#66.#63;	//  java/lang/IndexOutOfBoundsException."<init>":(Ljava/lang/String;)V
const #68 = Asciz	productArity;
const #69 = Asciz	()I;
const #70 = Asciz	productPrefix;
const #71 = Asciz	Cell;
const #72 = String	#71;	//  Cell
const #73 = NameAndType	#30:#31;//  gd1$1:(Ljava/lang/Object;)Z
const #74 = Method	#12.#73;	//  scala/Cell.gd1$1:(Ljava/lang/Object;)Z
const #75 = Asciz	scala/Equals;
const #76 = class	#75;	//  scala/Equals
const #77 = NameAndType	#49:#31;//  canEqual:(Ljava/lang/Object;)Z
const #78 = InterfaceMethod	#76.#77;	//  scala/Equals.canEqual:(Ljava/lang/Object;)Z
const #79 = Asciz	temp2;
const #80 = Asciz	temp3;
const #81 = Asciz	scala/runtime/ScalaRunTime$;
const #82 = class	#81;	//  scala/runtime/ScalaRunTime$
const #83 = Asciz	MODULE$;
const #84 = Asciz	Lscala/runtime/ScalaRunTime$;;
const #85 = NameAndType	#83:#84;//  MODULE$:Lscala/runtime/ScalaRunTime$;
const #86 = Field	#82.#85;	//  scala/runtime/ScalaRunTime$.MODULE$:Lscala/runtime/ScalaRunTime$;
const #87 = Asciz	_toString;
const #88 = Asciz	(Lscala/Product;)Ljava/lang/String;;
const #89 = NameAndType	#87:#88;//  _toString:(Lscala/Product;)Ljava/lang/String;
const #90 = Method	#82.#89;	//  scala/runtime/ScalaRunTime$._toString:(Lscala/Product;)Ljava/lang/String;
const #91 = Asciz	hashCode;
const #92 = Asciz	_hashCode;
const #93 = Asciz	(Lscala/Product;)I;
const #94 = NameAndType	#92:#93;//  _hashCode:(Lscala/Product;)I
const #95 = Method	#82.#94;	//  scala/runtime/ScalaRunTime$._hashCode:(Lscala/Product;)I
const #96 = Asciz	copy;
const #97 = Asciz	(Ljava/lang/Object;)Lscala/Cell;;
const #98 = NameAndType	#7:#8;//  "<init>":(Ljava/lang/Object;)V
const #99 = Method	#12.#98;	//  scala/Cell."<init>":(Ljava/lang/Object;)V
const #100 = Asciz	()TT;;
const #101 = Asciz	copy$default$1;
const #102 = Asciz	productElements;
const #103 = Asciz	()Lscala/collection/Iterator;;
const #104 = Asciz	(Lscala/Product;)Lscala/collection/Iterator;;
const #105 = NameAndType	#102:#104;//  productElements:(Lscala/Product;)Lscala/collection/Iterator;
const #106 = Method	#21.#105;	//  scala/Product$class.productElements:(Lscala/Product;)Lscala/collection/Iterator;
const #107 = Asciz	Deprecated;
const #108 = Asciz	productIterator;
const #109 = NameAndType	#108:#104;//  productIterator:(Lscala/Product;)Lscala/collection/Iterator;
const #110 = Method	#21.#109;	//  scala/Product$class.productIterator:(Lscala/Product;)Lscala/collection/Iterator;
const #111 = Asciz	<T:Ljava/lang/Object;>Ljava/lang/Object;Lscala/ScalaObject;Lscala/Product;;
const #112 = Asciz	ScalaSig;
const #113 = Asciz	scala/ScalaObject;
const #114 = class	#113;	//  scala/ScalaObject
const #115 = Asciz	scala/Product;
const #116 = class	#115;	//  scala/Product
const #117 = Asciz	java/io/Serializable;
const #118 = class	#117;	//  java/io/Serializable

{
public scala.Cell(java.lang.Object);
  Code:
   Stack=2, Locals=2, Args_size=2
   0:	aload_0
   1:	aload_1
   2:	putfield	#14; //Field elem:Ljava/lang/Object;
   5:	aload_0
   6:	invokespecial	#19; //Method java/lang/Object."<init>":()V
   9:	aload_0
   10:	invokestatic	#25; //Method scala/Product$class.$init$:(Lscala/Product;)V
   13:	return
  LineNumberTable: 
   line 21: 0

  LocalVariableTable: 
   Start  Length  Slot  Name   Signature
   0      14      0    this       Lscala/Cell;
   0      14      1    elem       Ljava/lang/Object;

  Signature: length = 0x2
   00 1D 

public boolean canEqual(java.lang.Object);
  Code:
   Stack=1, Locals=2, Args_size=2
   0:	aload_1
   1:	instanceof	#12; //class scala/Cell
   4:	ireturn
  LineNumberTable: 
   line 21: 0


public java.lang.Object productElement(int);
  Code:
   Stack=3, Locals=2, Args_size=2
   0:	iload_1
   1:	iconst_0
   2:	if_icmpne	29
   5:	iconst_1
   6:	ifeq	14
   9:	aload_0
   10:	invokevirtual	#34; //Method elem:()Ljava/lang/Object;
   13:	areturn
   14:	new	#53; //class scala/MatchError
   17:	dup
   18:	iload_1
   19:	invokestatic	#57; //Method scala/runtime/BoxesRunTime.boxToInteger:(I)Ljava/lang/Integer;
   22:	invokevirtual	#61; //Method java/lang/Object.toString:()Ljava/lang/String;
   25:	invokespecial	#64; //Method scala/MatchError."<init>":(Ljava/lang/String;)V
   28:	athrow
   29:	iconst_1
   30:	ifeq	48
   33:	new	#66; //class java/lang/IndexOutOfBoundsException
   36:	dup
   37:	iload_1
   38:	invokestatic	#57; //Method scala/runtime/BoxesRunTime.boxToInteger:(I)Ljava/lang/Integer;
   41:	invokevirtual	#61; //Method java/lang/Object.toString:()Ljava/lang/String;
   44:	invokespecial	#67; //Method java/lang/IndexOutOfBoundsException."<init>":(Ljava/lang/String;)V
   47:	athrow
   48:	new	#53; //class scala/MatchError
   51:	dup
   52:	iload_1
   53:	invokestatic	#57; //Method scala/runtime/BoxesRunTime.boxToInteger:(I)Ljava/lang/Integer;
   56:	invokevirtual	#61; //Method java/lang/Object.toString:()Ljava/lang/String;
   59:	invokespecial	#64; //Method scala/MatchError."<init>":(Ljava/lang/String;)V
   62:	athrow
  LineNumberTable: 
   line 21: 0


public int productArity();
  Code:
   Stack=1, Locals=1, Args_size=1
   0:	iconst_1
   1:	ireturn
  LineNumberTable: 
   line 21: 0


public java.lang.String productPrefix();
  Code:
   Stack=1, Locals=1, Args_size=1
   0:	ldc	#72; //String Cell
   2:	areturn
  LineNumberTable: 
   line 21: 0


public boolean equals(java.lang.Object);
  Code:
   Stack=3, Locals=4, Args_size=2
   0:	aload_0
   1:	aload_1
   2:	if_acmpeq	71
   5:	aload_1
   6:	instanceof	#12; //class scala/Cell
   9:	ifeq	63
   12:	aload_1
   13:	checkcast	#12; //class scala/Cell
   16:	astore_2
   17:	aload_2
   18:	invokevirtual	#34; //Method elem:()Ljava/lang/Object;
   21:	astore_3
   22:	aload_0
   23:	aload_3
   24:	invokespecial	#74; //Method gd1$1:(Ljava/lang/Object;)Z
   27:	ifeq	43
   30:	aload_1
   31:	checkcast	#12; //class scala/Cell
   34:	aload_0
   35:	invokeinterface	#78,  2; //InterfaceMethod scala/Equals.canEqual:(Ljava/lang/Object;)Z
   40:	goto	68
   43:	iconst_1
   44:	ifeq	51
   47:	iconst_0
   48:	goto	68
   51:	new	#53; //class scala/MatchError
   54:	dup
   55:	aload_1
   56:	invokevirtual	#61; //Method java/lang/Object.toString:()Ljava/lang/String;
   59:	invokespecial	#64; //Method scala/MatchError."<init>":(Ljava/lang/String;)V
   62:	athrow
   63:	iconst_1
   64:	ifeq	77
   67:	iconst_0
   68:	ifeq	75
   71:	iconst_1
   72:	goto	76
   75:	iconst_0
   76:	ireturn
   77:	new	#53; //class scala/MatchError
   80:	dup
   81:	aload_1
   82:	invokevirtual	#61; //Method java/lang/Object.toString:()Ljava/lang/String;
   85:	invokespecial	#64; //Method scala/MatchError."<init>":(Ljava/lang/String;)V
   88:	athrow
  LineNumberTable: 
   line 21: 0

  LocalVariableTable: 
   Start  Length  Slot  Name   Signature
   0      89      0    this       Lscala/Cell;
   17      46      2    temp2       Lscala/Cell;
   22      41      3    temp3       Ljava/lang/Object;


public java.lang.String toString();
  Code:
   Stack=2, Locals=1, Args_size=1
   0:	getstatic	#86; //Field scala/runtime/ScalaRunTime$.MODULE$:Lscala/runtime/ScalaRunTime$;
   3:	aload_0
   4:	invokevirtual	#90; //Method scala/runtime/ScalaRunTime$._toString:(Lscala/Product;)Ljava/lang/String;
   7:	areturn
  LineNumberTable: 
   line 21: 0


public int hashCode();
  Code:
   Stack=2, Locals=1, Args_size=1
   0:	getstatic	#86; //Field scala/runtime/ScalaRunTime$.MODULE$:Lscala/runtime/ScalaRunTime$;
   3:	aload_0
   4:	invokevirtual	#95; //Method scala/runtime/ScalaRunTime$._hashCode:(Lscala/Product;)I
   7:	ireturn
  LineNumberTable: 
   line 21: 0


public scala.Cell copy(java.lang.Object);
  Code:
   Stack=3, Locals=2, Args_size=2
   0:	new	#12; //class scala/Cell
   3:	dup
   4:	aload_1
   5:	invokespecial	#99; //Method "<init>":(Ljava/lang/Object;)V
   8:	areturn
  LineNumberTable: 
   line 21: 0

  LocalVariableTable: 
   Start  Length  Slot  Name   Signature
   0      9      0    this       Lscala/Cell;
   0      9      1    elem       Ljava/lang/Object;


public java.lang.Object elem();
  Code:
   Stack=1, Locals=1, Args_size=1
   0:	aload_0
   1:	getfield	#14; //Field elem:Ljava/lang/Object;
   4:	areturn
  LineNumberTable: 
   line 21: 0

  Signature: length = 0x2
   00 64 

public java.lang.Object copy$default$1();
  Code:
   Stack=1, Locals=1, Args_size=1
   0:	aload_0
   1:	invokevirtual	#34; //Method elem:()Ljava/lang/Object;
   4:	areturn
  LineNumberTable: 
   line 21: 0


public scala.collection.Iterator productElements();
  Code:
   Stack=1, Locals=1, Args_size=1
   0:	aload_0
   1:	invokestatic	#106; //Method scala/Product$class.productElements:(Lscala/Product;)Lscala/collection/Iterator;
   4:	areturn
  LineNumberTable: 
   line 21: 0

  Deprecated: true

public scala.collection.Iterator productIterator();
  Code:
   Stack=1, Locals=1, Args_size=1
   0:	aload_0
   1:	invokestatic	#110; //Method scala/Product$class.productIterator:(Lscala/Product;)Lscala/collection/Iterator;
   4:	areturn
  LineNumberTable: 
   line 21: 0


}

