Compiled from "package.scala"
public final class scala.Font extends java.lang.Object
  SourceFile: "package.scala"
  ScalaSig: length = 0x2D3
   05 00 7A 07 05 01 02 FFFFFF88 02 05 01 04 46 6F 6E 74
   0A 01 03 01 05 73 63 61 6C 61 03 00 10 02 06 07
   0D 01 02 06 08 08 02 FFFFFF84 FFFFFF80 FFFFFF80 FFFFFF88 02 09 02 04 46
   6F 6E 74 13 03 07 0A 12 10 02 0B 10 0D 01 0C 0A
   02 0D 0E 01 04 6C 61 6E 67 0A 01 0F 01 04 6A 61
   76 61 09 02 11 0C 02 06 4F 62 6A 65 63 74 10 02
   06 13 09 02 14 02 02 0B 53 63 61 6C 61 4F 62 6A
   65 63 74 08 05 16 07 FFFFFF84 00 17 01 06 3C 69 6E 69
   74 3E 14 01 05 08 05 19 07 FFFFFF84 00 1A 01 05 61 70
   70 6C 79 14 03 1B 20 25 10 02 1C 1F 0D 01 1D 0A
   02 1E 0E 01 03 61 77 74 09 02 08 1D 08 05 21 18
   FFFFFFC0 00 22 01 0A 66 6F 6E 74 46 6F 72 6D 61 74 10
   02 06 23 09 02 24 02 02 03 49 6E 74 08 05 26 18
   FFFFFFC0 00 27 01 08 66 6F 6E 74 46 69 6C 65 10 02 28
   2B 0D 01 29 0A 02 2A 0E 01 02 69 6F 09 02 2C 29
   02 04 46 69 6C 65 08 05 19 07 FFFFFF84 00 2E 14 03 1B
   2F 30 08 05 21 2D FFFFFFC0 00 22 08 05 31 2D FFFFFFC0 00 32
   01 0A 66 6F 6E 74 53 74 72 65 61 6D 10 02 28 33
   09 02 34 29 02 0B 49 6E 70 75 74 53 74 72 65 61
   6D 08 05 36 07 FFFFFF84 00 37 01 06 64 65 63 6F 64 65
   14 02 1B 38 08 05 39 35 FFFFFFC0 00 3A 01 03 73 74 72
   10 02 3B 3E 0E 02 06 3C 09 02 3D 02 01 06 50 72
   65 64 65 66 09 02 3F 40 02 06 53 74 72 69 6E 67
   0A 02 3D 02 08 05 42 07 FFFFFF84 00 43 01 03 67 65 74
   14 02 1B 44 08 05 45 41 FFFFFFC0 00 3A 01 02 6E 6D 08
   05 42 07 FFFFFF84 00 47 14 03 1B 48 49 08 05 45 46 FFFFFFC0
   00 3A 08 05 4A 46 FFFFFFC0 00 4B 01 04 66 6F 6E 74 10
   02 4C 53 0E 02 4D 50 0E 02 06 4E 09 02 4F 02 01
   05 73 77 69 6E 67 09 02 51 52 01 07 70 61 63 6B
   61 67 65 0A 02 4F 02 09 02 08 54 0A 02 51 52 08
   05 56 07 FFFFFF84 00 57 01 06 49 6E 73 65 74 73 14 05
   58 5B 5D 5F 61 10 02 1C 59 09 02 5A 1D 02 06 49
   6E 73 65 74 73 08 05 5C 55 FFFFFFC0 00 22 01 01 78 08
   05 5E 55 FFFFFFC0 00 22 01 01 79 08 05 60 55 FFFFFFC0 00 22
   01 05 77 69 64 74 68 08 05 62 55 FFFFFFC0 00 22 01 06
   68 65 69 67 68 74 08 05 64 07 FFFFFF84 00 65 01 09 52
   65 63 74 61 6E 67 6C 65 14 05 58 66 67 68 69 08
   05 5C 63 FFFFFFC0 00 22 08 05 5E 63 FFFFFFC0 00 22 08 05 60
   63 FFFFFFC0 00 22 08 05 62 63 FFFFFFC0 00 22 08 05 6B 07 FFFFFF84
   00 6C 01 05 50 6F 69 6E 74 14 03 6D 70 71 10 02
   1C 6E 09 02 6F 1D 02 05 50 6F 69 6E 74 08 05 5C
   6A FFFFFFC0 00 22 08 05 5E 6A FFFFFFC0 00 22 08 05 73 07 FFFFFF84
   00 74 01 09 44 69 6D 65 6E 73 69 6F 6E 14 03 75
   78 79 10 02 1C 76 09 02 77 1D 02 09 44 69 6D 65
   6E 73 69 6F 6E 08 05 5C 72 FFFFFFC0 00 22 08 05 5E 72
   FFFFFFC0 00 22 
  minor version: 0
  major version: 49
  Constant pool:
const #1 = Asciz	SourceFile;
const #2 = Asciz	package.scala;
const #3 = Asciz	Dimension;
const #4 = Asciz	(II)Ljava/awt/Dimension;;
const #5 = Asciz	Code;
const #6 = Asciz	scala/Font$;
const #7 = class	#6;	//  scala/Font$
const #8 = Asciz	MODULE$;
const #9 = Asciz	Lscala/Font$;;
const #10 = NameAndType	#8:#9;//  MODULE$:Lscala/Font$;
const #11 = Field	#7.#10;	//  scala/Font$.MODULE$:Lscala/Font$;
const #12 = NameAndType	#3:#4;//  Dimension:(II)Ljava/awt/Dimension;
const #13 = Method	#7.#12;	//  scala/Font$.Dimension:(II)Ljava/awt/Dimension;
const #14 = Asciz	Point;
const #15 = Asciz	(II)Ljava/awt/Point;;
const #16 = NameAndType	#14:#15;//  Point:(II)Ljava/awt/Point;
const #17 = Method	#7.#16;	//  scala/Font$.Point:(II)Ljava/awt/Point;
const #18 = Asciz	Rectangle;
const #19 = Asciz	(IIII)Ljava/awt/Insets;;
const #20 = NameAndType	#18:#19;//  Rectangle:(IIII)Ljava/awt/Insets;
const #21 = Method	#7.#20;	//  scala/Font$.Rectangle:(IIII)Ljava/awt/Insets;
const #22 = Asciz	Insets;
const #23 = NameAndType	#22:#19;//  Insets:(IIII)Ljava/awt/Insets;
const #24 = Method	#7.#23;	//  scala/Font$.Insets:(IIII)Ljava/awt/Insets;
const #25 = Asciz	get;
const #26 = Asciz	(Ljava/lang/String;Ljava/awt/Font;)Ljava/awt/Font;;
const #27 = NameAndType	#25:#26;//  get:(Ljava/lang/String;Ljava/awt/Font;)Ljava/awt/Font;
const #28 = Method	#7.#27;	//  scala/Font$.get:(Ljava/lang/String;Ljava/awt/Font;)Ljava/awt/Font;
const #29 = Asciz	(Ljava/lang/String;)Ljava/awt/Font;;
const #30 = NameAndType	#25:#29;//  get:(Ljava/lang/String;)Ljava/awt/Font;
const #31 = Method	#7.#30;	//  scala/Font$.get:(Ljava/lang/String;)Ljava/awt/Font;
const #32 = Asciz	decode;
const #33 = NameAndType	#32:#29;//  decode:(Ljava/lang/String;)Ljava/awt/Font;
const #34 = Method	#7.#33;	//  scala/Font$.decode:(Ljava/lang/String;)Ljava/awt/Font;
const #35 = Asciz	apply;
const #36 = Asciz	(ILjava/io/InputStream;)Ljava/awt/Font;;
const #37 = NameAndType	#35:#36;//  apply:(ILjava/io/InputStream;)Ljava/awt/Font;
const #38 = Method	#7.#37;	//  scala/Font$.apply:(ILjava/io/InputStream;)Ljava/awt/Font;
const #39 = Asciz	(ILjava/io/File;)Ljava/awt/Font;;
const #40 = NameAndType	#35:#39;//  apply:(ILjava/io/File;)Ljava/awt/Font;
const #41 = Method	#7.#40;	//  scala/Font$.apply:(ILjava/io/File;)Ljava/awt/Font;
const #42 = Asciz	ScalaSig;
const #43 = Asciz	scala/Font;
const #44 = class	#43;	//  scala/Font
const #45 = Asciz	java/lang/Object;
const #46 = class	#45;	//  java/lang/Object

{
public static final java.awt.Dimension Dimension(int, int);
  Code:
   Stack=3, Locals=2, Args_size=2
   0:	getstatic	#11; //Field scala/Font$.MODULE$:Lscala/Font$;
   3:	iload_0
   4:	iload_1
   5:	invokevirtual	#13; //Method scala/Font$.Dimension:(II)Ljava/awt/Dimension;
   8:	areturn

public static final java.awt.Point Point(int, int);
  Code:
   Stack=3, Locals=2, Args_size=2
   0:	getstatic	#11; //Field scala/Font$.MODULE$:Lscala/Font$;
   3:	iload_0
   4:	iload_1
   5:	invokevirtual	#17; //Method scala/Font$.Point:(II)Ljava/awt/Point;
   8:	areturn

public static final java.awt.Insets Rectangle(int, int, int, int);
  Code:
   Stack=5, Locals=4, Args_size=4
   0:	getstatic	#11; //Field scala/Font$.MODULE$:Lscala/Font$;
   3:	iload_0
   4:	iload_1
   5:	iload_2
   6:	iload_3
   7:	invokevirtual	#21; //Method scala/Font$.Rectangle:(IIII)Ljava/awt/Insets;
   10:	areturn

public static final java.awt.Insets Insets(int, int, int, int);
  Code:
   Stack=5, Locals=4, Args_size=4
   0:	getstatic	#11; //Field scala/Font$.MODULE$:Lscala/Font$;
   3:	iload_0
   4:	iload_1
   5:	iload_2
   6:	iload_3
   7:	invokevirtual	#24; //Method scala/Font$.Insets:(IIII)Ljava/awt/Insets;
   10:	areturn

public static final java.awt.Font get(java.lang.String, java.awt.Font);
  Code:
   Stack=3, Locals=2, Args_size=2
   0:	getstatic	#11; //Field scala/Font$.MODULE$:Lscala/Font$;
   3:	aload_0
   4:	aload_1
   5:	invokevirtual	#28; //Method scala/Font$.get:(Ljava/lang/String;Ljava/awt/Font;)Ljava/awt/Font;
   8:	areturn

public static final java.awt.Font get(java.lang.String);
  Code:
   Stack=2, Locals=1, Args_size=1
   0:	getstatic	#11; //Field scala/Font$.MODULE$:Lscala/Font$;
   3:	aload_0
   4:	invokevirtual	#31; //Method scala/Font$.get:(Ljava/lang/String;)Ljava/awt/Font;
   7:	areturn

public static final java.awt.Font decode(java.lang.String);
  Code:
   Stack=2, Locals=1, Args_size=1
   0:	getstatic	#11; //Field scala/Font$.MODULE$:Lscala/Font$;
   3:	aload_0
   4:	invokevirtual	#34; //Method scala/Font$.decode:(Ljava/lang/String;)Ljava/awt/Font;
   7:	areturn

public static final java.awt.Font apply(int, java.io.InputStream);
  Code:
   Stack=3, Locals=2, Args_size=2
   0:	getstatic	#11; //Field scala/Font$.MODULE$:Lscala/Font$;
   3:	iload_0
   4:	aload_1
   5:	invokevirtual	#38; //Method scala/Font$.apply:(ILjava/io/InputStream;)Ljava/awt/Font;
   8:	areturn

public static final java.awt.Font apply(int, java.io.File);
  Code:
   Stack=3, Locals=2, Args_size=2
   0:	getstatic	#11; //Field scala/Font$.MODULE$:Lscala/Font$;
   3:	iload_0
   4:	aload_1
   5:	invokevirtual	#41; //Method scala/Font$.apply:(ILjava/io/File;)Ljava/awt/Font;
   8:	areturn

}

