Compiled from "Function1.scala"
public interface scala.Function1 extends scala.ScalaObject
  SourceFile: "Function1.scala"
  Signature: length = 0x2
   00 0E 
  ScalaSig: length = 0x191
   05 00 47 06 07 01 02 FFFFFF90 FFFFFF80 FFFFFF81 00 05 02 09 46 75
   6E 63 74 69 6F 6E 31 0A 01 03 01 05 73 63 61 6C
   61 03 00 15 03 06 2A 1E 13 03 00 07 0F 10 02 08
   0D 0D 01 09 0A 02 0A 0B 01 04 6C 61 6E 67 0A 01
   0C 01 04 6A 61 76 61 09 02 0E 09 02 06 4F 62 6A
   65 63 74 10 02 10 11 0D 01 02 09 02 12 02 02 0B
   53 63 61 6C 61 4F 62 6A 65 63 74 08 05 14 00 FFFFFF84
   00 15 01 06 24 69 6E 69 74 24 14 01 16 10 02 10
   17 09 02 18 02 02 04 55 6E 69 74 08 05 1A 00 FFFFFF86
   00 1B 01 05 61 70 70 6C 79 14 02 1C 27 10 02 1D
   1E 0C 00 04 08 1F 00 FFFFFF84 FFFFFF80 FFFFFF84 FFFFFFC2 00 20 02 01 52
   11 02 21 24 10 02 10 22 09 02 23 02 02 07 4E 6F
   74 68 69 6E 67 10 02 10 25 09 02 26 02 02 03 41
   6E 79 08 05 28 19 FFFFFFC0 00 29 01 02 76 31 10 02 1D
   2A 04 08 2B 00 FFFFFF84 FFFFFF80 FFFFFF88 FFFFFFC2 00 20 02 02 54 31 08
   05 2D 00 FFFFFF84 20 2E 01 08 74 6F 53 74 72 69 6E 67
   14 01 2F 10 02 08 30 09 02 31 09 02 06 53 74 72
   69 6E 67 08 05 33 00 FFFFFF84 00 34 01 07 63 6F 6D 70
   6F 73 65 15 02 35 38 14 02 36 3A 10 04 10 00 37
   1C 10 02 1D 38 04 08 39 32 FFFFFF84 FFFFFF80 FFFFFF80 FFFFFFC2 00 20 02
   01 41 08 05 3B 32 FFFFFFC0 00 3C 01 01 67 10 04 10 00
   37 29 08 05 3E 00 FFFFFF84 00 3F 01 07 61 6E 64 54 68
   65 6E 15 02 40 43 14 02 41 44 10 04 10 00 29 42
   10 02 1D 43 04 08 39 3D FFFFFF84 FFFFFF80 FFFFFF80 FFFFFFC2 00 20 08 05
   3B 3D FFFFFFC0 00 45 10 04 10 00 1C 42 10 04 10 00 29
   1C 
  InnerClass: 
   public final $anonfun$andThen$1=class scala/Function1$$anonfun$andThen$1 of class scala/Function1
   public final $anonfun$compose$1=class scala/Function1$$anonfun$compose$1 of class scala/Function1
  minor version: 0
  major version: 49
  Constant pool:
Asciz	SourceFile;
Asciz	Function1.scala;
Asciz	apply;
Asciz	(Ljava/lang/Object;)Ljava/lang/Object;;
Asciz	(TT1;)TR;;
Asciz	Signature;
Asciz	toString;
Asciz	()Ljava/lang/String;;
Asciz	compose;
Asciz	(Lscala/Function1;)Lscala/Function1;;
Asciz	<A:Ljava/lang/Object;>(Lscala/Function1<TA;TT1;>;)Lscala/Function1<TA;TR;>;;
Asciz	andThen;
Asciz	<A:Ljava/lang/Object;>(Lscala/Function1<TR;TA;>;)Lscala/Function1<TT1;TA;>;;
Asciz	<T1:Ljava/lang/Object;R:Ljava/lang/Object;>Ljava/lang/Object;Lscala/ScalaObject;;
Asciz	ScalaSig;
Asciz	InnerClasses;
Asciz	scala/Function1$$anonfun$andThen$1;
class	scala/Function1$$anonfun$andThen$1
Asciz	scala/Function1;
class	scala/Function1
Asciz	$anonfun$andThen$1;
Asciz	scala/Function1$$anonfun$compose$1;
class	scala/Function1$$anonfun$compose$1
Asciz	$anonfun$compose$1;
Asciz	java/lang/Object;
class	java/lang/Object
Asciz	scala/ScalaObject;
class	scala/ScalaObject

{
public abstract java.lang.Object apply(java.lang.Object);
  Signature: (Ljava/lang/Object;)Ljava/lang/Object;
  Signature: length = 0x2
   00 05 

public abstract java.lang.String toString();
  Signature: ()Ljava/lang/String;

public abstract scala.Function1 compose(scala.Function1);
  Signature: (Lscala/Function1;)Lscala/Function1;
  Signature: length = 0x2
   00 0B 

public abstract scala.Function1 andThen(scala.Function1);
  Signature: (Lscala/Function1;)Lscala/Function1;
  Signature: length = 0x2
   00 0D 

}

