Compiled from "Iterable.scala"
public interface scala.Iterable
  ScalaSig: length = 0x9B6
   04 01 FFFFFF82 63 07 05 01 02 FFFFFF88 02 05 01 08 49 74 65
   72 61 62 6C 65 0A 01 03 01 05 73 63 61 6C 61 03
   00 10 02 06 07 0D 01 02 06 08 08 02 FFFFFF84 FFFFFF80 FFFFFF80 FFFFFF88
   02 09 02 08 49 74 65 72 61 62 6C 65 13 03 07 0A
   12 10 02 0B 10 0D 01 0C 0A 02 0D 0E 01 04 6C 61
   6E 67 0A 01 0F 01 04 6A 61 76 61 09 02 11 0C 02
   06 4F 62 6A 65 63 74 10 02 06 13 09 02 14 02 02
   0B 53 63 61 6C 61 4F 62 6A 65 63 74 08 05 16 07
   FFFFFF84 00 17 01 06 3C 69 6E 69 74 3E 14 01 05 08 05
   19 07 FFFFFF84 00 1A 01 03 6D 69 6E 15 02 1B 1F 14 02
   1C 2E 16 02 1D 28 10 02 1E 1F 0C 00 04 08 20 18
   FFFFFF84 FFFFFF80 FFFFFF80 FFFFFFC2 00 21 02 01 41 11 02 22 25 10 02 06
   23 09 02 24 02 02 07 4E 6F 74 68 69 6E 67 10 02
   06 26 09 02 27 02 02 03 41 6E 79 10 04 06 29 1D
   2B 09 02 2A 02 02 09 46 75 6E 63 74 69 6F 6E 31
   10 03 06 2C 1D 09 02 2D 02 02 07 4F 72 64 65 72
   65 64 10 03 06 2F 1D 06 07 08 02 FFFFFF90 FFFFFF80 FFFFFF81 00 30
   15 02 31 3F 13 03 2F 0A 12 08 05 33 2F FFFFFF84 00 34
   01 06 24 69 6E 69 74 24 14 01 35 10 02 06 36 09
   02 37 02 02 04 55 6E 69 74 08 05 39 2F FFFFFF86 00 3A
   01 08 65 6C 65 6D 65 6E 74 73 15 01 3B 10 03 06
   3C 3E 09 02 3D 02 02 08 49 74 65 72 61 74 6F 72
   10 02 1E 3F 04 08 20 2F FFFFFF84 FFFFFF80 FFFFFF84 FFFFFFC2 00 21 08 05
   41 2F FFFFFF84 00 42 01 06 63 6F 6E 63 61 74 15 02 43
   48 14 02 44 4B 10 03 06 45 47 09 02 46 02 02 0A
   43 6F 6C 6C 65 63 74 69 6F 6E 10 02 1E 48 04 08
   49 40 FFFFFF84 FFFFFF80 FFFFFF80 FFFFFFC2 00 4A 02 01 42 11 02 3E 25 10
   03 06 2F 47 28 02 40 4D 10 02 06 4E 09 02 4F 02
   02 0A 64 65 70 72 65 63 61 74 65 64 08 05 51 2F
   FFFFFF84 00 52 01 0A 24 70 6C 75 73 24 70 6C 75 73 15
   02 53 56 14 02 54 57 10 03 06 45 55 10 02 1E 56
   04 08 49 50 FFFFFF84 FFFFFF80 FFFFFF80 FFFFFFC2 00 4A 10 03 06 2F 55 08
   05 59 2F FFFFFF84 00 5A 01 03 6D 61 70 15 02 5B 5E 14
   02 5C 5F 10 03 06 2F 5D 10 02 1E 5E 04 08 49 58
   FFFFFF84 FFFFFF80 FFFFFF80 FFFFFFC2 00 21 10 04 06 29 3E 5D 08 05 61 2F
   FFFFFF84 00 62 01 07 66 6C 61 74 4D 61 70 15 02 63 66
   14 02 64 67 10 03 06 2F 65 10 02 1E 66 04 08 49
   60 FFFFFF84 FFFFFF80 FFFFFF80 FFFFFFC2 00 21 10 04 06 29 3E 64 08 05 69
   2F FFFFFF84 00 6A 01 06 66 69 6C 74 65 72 14 02 6B 6C
   10 03 06 2F 3E 10 04 06 29 3E 6D 10 02 06 6E 09
   02 6F 02 02 07 42 6F 6F 6C 65 61 6E 08 05 71 2F
   FFFFFF84 00 72 01 09 70 61 72 74 69 74 69 6F 6E 14 02
   73 6C 10 04 06 74 6B 6B 09 02 75 02 02 06 54 75
   70 6C 65 32 08 05 77 2F FFFFFF84 00 6A 01 09 74 61 6B
   65 57 68 69 6C 65 08 05 79 2F FFFFFF84 00 7A 01 09 64
   72 6F 70 57 68 69 6C 65 14 02 7B 6C 10 03 06 45
   3E 08 05 7D 2F FFFFFF84 00 7E 01 04 74 61 6B 65 14 02
   7B 7F 10 03 06 FFFFFF81 00 09 03 FFFFFF81 01 02 02 03 49 6E
   74 28 02 7C 4D 08 06 FFFFFF81 04 2F FFFFFF84 00 7E 01 04 64
   72 6F 70 28 03 FFFFFF81 03 4D 08 07 FFFFFF81 07 2F FFFFFF84 00 FFFFFF81
   08 01 07 66 6F 72 65 61 63 68 14 03 35 FFFFFF81 09 10
   04 06 29 3E 35 08 07 FFFFFF81 0B 2F FFFFFF84 00 FFFFFF81 0C 01 06
   66 6F 72 61 6C 6C 14 02 6D 6C 08 07 FFFFFF81 0E 2F FFFFFF84
   00 FFFFFF81 0C 01 06 65 78 69 73 74 73 08 07 FFFFFF81 10 2F
   FFFFFF84 00 FFFFFF81 11 01 04 66 69 6E 64 14 03 FFFFFF81 12 6C 10
   04 06 FFFFFF81 13 3E 09 03 FFFFFF81 14 02 02 06 4F 70 74 69
   6F 6E 08 07 FFFFFF81 16 2F FFFFFF84 00 FFFFFF81 17 01 0B 66 69 6E
   64 49 6E 64 65 78 4F 66 14 02 7F 6C 28 03 FFFFFF81 15
   4D 08 07 FFFFFF81 1A 2F FFFFFF84 00 FFFFFF81 1B 01 07 69 6E 64 65
   78 4F 66 15 04 FFFFFF81 1C FFFFFF81 1E 14 03 7F FFFFFF81 1D 10 03
   1E FFFFFF81 1E 04 09 49 FFFFFF81 19 FFFFFF84 FFFFFF80 FFFFFF80 FFFFFFC2 00 4A 28 03
   FFFFFF81 19 4D 08 07 FFFFFF81 21 2F FFFFFF84 00 FFFFFF81 22 01 08 66 6F
   6C 64 4C 65 66 74 15 04 FFFFFF81 23 FFFFFF81 26 14 04 FFFFFF81 24
   FFFFFF81 25 14 04 FFFFFF81 25 FFFFFF81 27 10 03 1E FFFFFF81 26 04 09 49
   FFFFFF81 20 FFFFFF84 FFFFFF80 FFFFFF80 FFFFFFC2 00 21 10 08 06 FFFFFF81 28 FFFFFF81 25 3E
   FFFFFF81 25 09 03 FFFFFF81 29 02 02 09 46 75 6E 63 74 69 6F
   6E 32 08 07 FFFFFF81 2B 2F FFFFFF84 00 FFFFFF81 2C 01 09 66 6F 6C
   64 52 69 67 68 74 15 04 FFFFFF81 2D FFFFFF81 30 14 04 FFFFFF81 2E
   FFFFFF81 2F 14 04 FFFFFF81 2F FFFFFF81 31 10 03 1E FFFFFF81 30 04 09 49
   FFFFFF81 2A FFFFFF84 FFFFFF80 FFFFFF80 FFFFFFC2 00 21 10 08 06 FFFFFF81 28 3E FFFFFF81 2F
   FFFFFF81 2F 08 07 FFFFFF81 33 2F FFFFFF84 00 FFFFFF81 34 01 0A 24 64 69
   76 24 63 6F 6C 6F 6E 15 04 FFFFFF81 35 FFFFFF81 38 14 04 FFFFFF81
   36 FFFFFF81 37 14 04 FFFFFF81 37 FFFFFF81 39 10 03 1E FFFFFF81 38 04 09
   49 FFFFFF81 32 FFFFFF84 FFFFFF80 FFFFFF80 FFFFFFC2 00 21 10 08 06 FFFFFF81 28 FFFFFF81 37
   3E FFFFFF81 37 08 07 FFFFFF81 3B 2F FFFFFF84 00 FFFFFF81 3C 01 0D 24 63
   6F 6C 6F 6E 24 62 73 6C 61 73 68 15 04 FFFFFF81 3D FFFFFF81
   40 14 04 FFFFFF81 3E FFFFFF81 3F 14 04 FFFFFF81 3F FFFFFF81 41 10 03 1E
   FFFFFF81 40 04 09 49 FFFFFF81 3A FFFFFF84 FFFFFF80 FFFFFF80 FFFFFFC2 00 21 10 08 06
   FFFFFF81 28 3E FFFFFF81 3F FFFFFF81 3F 08 07 FFFFFF81 43 2F FFFFFF84 00 FFFFFF81 44
   01 0A 72 65 64 75 63 65 4C 65 66 74 15 04 FFFFFF81 45
   FFFFFF81 47 14 04 FFFFFF81 46 FFFFFF81 48 10 03 1E FFFFFF81 47 04 09 49
   FFFFFF81 42 FFFFFF84 FFFFFF80 FFFFFF80 FFFFFFC2 00 4A 10 08 06 FFFFFF81 28 FFFFFF81 46 3E
   FFFFFF81 46 08 07 FFFFFF81 4A 2F FFFFFF84 00 FFFFFF81 4B 01 0B 72 65 64
   75 63 65 52 69 67 68 74 15 04 FFFFFF81 4C FFFFFF81 4E 14 04
   FFFFFF81 4D FFFFFF81 4F 10 03 1E FFFFFF81 4E 04 09 49 FFFFFF81 49 FFFFFF84 FFFFFF80
   FFFFFF80 FFFFFFC2 00 4A 10 08 06 FFFFFF81 28 3E FFFFFF81 4D FFFFFF81 4D 08 07
   FFFFFF81 51 2F FFFFFF84 00 FFFFFF81 52 01 0C 63 6F 70 79 54 6F 42
   75 66 66 65 72 15 04 FFFFFF81 53 FFFFFF81 5D 14 03 35 FFFFFF81 54
   10 06 FFFFFF81 55 FFFFFF81 5A FFFFFF81 5C 0D 02 FFFFFF81 56 0A 04 FFFFFF81 57
   FFFFFF81 58 01 07 6D 75 74 61 62 6C 65 0A 03 FFFFFF81 59 02
   01 0A 63 6F 6C 6C 65 63 74 69 6F 6E 09 04 FFFFFF81 5B
   FFFFFF81 56 02 06 42 75 66 66 65 72 10 03 1E FFFFFF81 5D 04
   09 49 FFFFFF81 50 FFFFFF84 FFFFFF80 FFFFFF80 FFFFFFC2 00 4A 08 07 FFFFFF81 5F 2F FFFFFF84
   00 FFFFFF81 60 01 0C 73 61 6D 65 45 6C 65 6D 65 6E 74
   73 15 04 FFFFFF81 61 FFFFFF81 64 14 03 6D FFFFFF81 62 10 04 06 2F
   FFFFFF81 63 10 03 1E FFFFFF81 64 04 09 49 FFFFFF81 5E FFFFFF84 FFFFFF80 FFFFFF80 FFFFFFC2
   00 4A 08 07 FFFFFF81 66 2F FFFFFF84 00 FFFFFF81 67 01 06 74 6F 4C
   69 73 74 15 02 FFFFFF81 68 10 04 06 FFFFFF81 69 3E 09 03 FFFFFF81
   6A 02 02 04 4C 69 73 74 08 07 FFFFFF81 6C 2F FFFFFF84 00 FFFFFF81
   6D 01 05 74 6F 53 65 71 15 02 FFFFFF81 6E 10 04 06 FFFFFF81
   6F 3E 09 03 FFFFFF81 70 02 02 03 53 65 71 08 07 FFFFFF81 72
   2F FFFFFF84 00 FFFFFF81 73 01 08 74 6F 53 74 72 65 61 6D 15
   02 FFFFFF81 74 10 04 06 FFFFFF81 75 3E 09 03 FFFFFF81 76 02 02 06
   53 74 72 65 61 6D 08 07 FFFFFF81 78 2F FFFFFF84 00 FFFFFF81 79 01
   08 6D 6B 53 74 72 69 6E 67 14 08 FFFFFF81 7A FFFFFF81 7A FFFFFF81
   7A FFFFFF81 7A 10 04 FFFFFF81 7B FFFFFF81 7E 0E 03 06 FFFFFF81 7C 09 03
   FFFFFF81 7D 02 01 06 50 72 65 64 65 66 09 04 FFFFFF81 7F FFFFFF82
   00 02 06 53 74 72 69 6E 67 0A 03 FFFFFF81 7D 02 08 07
   FFFFFF81 78 2F FFFFFF84 00 FFFFFF82 02 14 04 FFFFFF81 7A FFFFFF81 7A 08 07 FFFFFF81
   78 2F FFFFFF84 00 FFFFFF82 04 15 02 FFFFFF81 7A 08 07 FFFFFF82 06 2F FFFFFF84
   00 FFFFFF82 07 01 09 61 64 64 53 74 72 69 6E 67 14 0A
   FFFFFF82 08 FFFFFF82 08 FFFFFF81 7A FFFFFF81 7A FFFFFF81 7A 10 03 06 FFFFFF82 09 09
   03 FFFFFF82 0A 02 02 0D 53 74 72 69 6E 67 42 75 69 6C
   64 65 72 08 07 FFFFFF82 06 2F FFFFFF84 00 FFFFFF82 0C 14 06 FFFFFF82 08
   FFFFFF82 08 FFFFFF81 7A 08 07 FFFFFF82 06 2F FFFFFF84 00 FFFFFF82 0E 14 04 FFFFFF82
   08 FFFFFF82 08 08 07 FFFFFF82 10 2F FFFFFF84 00 FFFFFF82 11 01 0B 63 6F
   70 79 54 6F 41 72 72 61 79 15 04 FFFFFF82 12 FFFFFF82 17 14
   04 35 FFFFFF82 13 7F 10 05 06 FFFFFF82 14 FFFFFF82 16 09 03 FFFFFF82 15
   02 02 05 41 72 72 61 79 10 03 1E FFFFFF82 17 04 09 49
   FFFFFF82 0F FFFFFF84 FFFFFF80 FFFFFF80 FFFFFFC2 00 4A 08 07 FFFFFF82 19 2F FFFFFF84 00 FFFFFF82
   1A 01 07 69 73 45 6D 70 74 79 15 01 6D 08 07 FFFFFF82
   1C 2F FFFFFF84 00 FFFFFF82 1D 01 0A 70 72 6F 6A 65 63 74 69
   6F 6E 15 02 FFFFFF82 1E 10 05 FFFFFF82 1F FFFFFF82 20 3E 0E 02 06
   00 06 09 FFFFFF82 21 07 FFFFFF90 FFFFFF80 FFFFFF81 00 FFFFFF82 22 02 0A 50 72
   6F 6A 65 63 74 69 6F 6E 15 04 FFFFFF82 23 FFFFFF82 26 13 06
   FFFFFF82 20 0A FFFFFF82 24 12 10 04 06 2F FFFFFF82 25 10 03 1E FFFFFF82
   26 04 09 20 FFFFFF82 20 FFFFFF84 FFFFFF80 FFFFFF84 FFFFFFC2 00 21 08 06 33 FFFFFF82
   20 FFFFFF84 00 34 08 08 FFFFFF82 1C FFFFFF82 20 FFFFFF84 20 FFFFFF82 29 15 02
   FFFFFF82 2A 10 06 FFFFFF82 2B FFFFFF82 20 FFFFFF82 25 0D 01 07 08 08 FFFFFF82
   2D FFFFFF82 20 FFFFFF84 00 FFFFFF82 2E 01 05 66 6F 72 63 65 15 02
   FFFFFF82 24 08 07 69 FFFFFF82 20 FFFFFF84 20 FFFFFF82 30 14 04 FFFFFF82 2A FFFFFF82
   31 10 05 06 29 FFFFFF82 25 6D 08 07 59 FFFFFF82 20 FFFFFF84 20 FFFFFF82
   33 15 04 FFFFFF82 34 FFFFFF82 37 14 04 FFFFFF82 35 FFFFFF82 38 10 06 FFFFFF82
   2B FFFFFF82 20 FFFFFF82 36 10 03 1E FFFFFF82 37 04 09 49 FFFFFF82 32 FFFFFF84
   FFFFFF80 FFFFFF80 FFFFFFC2 00 21 10 06 06 29 FFFFFF82 25 FFFFFF82 36 08 07 61
   FFFFFF82 20 FFFFFF84 20 FFFFFF82 3A 15 04 FFFFFF82 3B FFFFFF82 3E 14 04 FFFFFF82 3C
   FFFFFF82 3F 10 06 FFFFFF82 2B FFFFFF82 20 FFFFFF82 3D 10 03 1E FFFFFF82 3E 04
   09 49 FFFFFF82 39 FFFFFF84 FFFFFF80 FFFFFF80 FFFFFFC2 00 21 10 06 06 29 FFFFFF82 25
   FFFFFF82 40 10 04 06 2F FFFFFF82 3D 08 07 77 FFFFFF82 20 FFFFFF84 20 FFFFFF82
   30 08 08 FFFFFF82 43 FFFFFF82 20 FFFFFF84 00 FFFFFF82 44 01 06 61 70 70
   65 6E 64 15 04 FFFFFF82 45 FFFFFF82 48 14 04 FFFFFF82 46 FFFFFF82 4A 10
   06 FFFFFF82 2B FFFFFF82 20 FFFFFF82 47 10 03 1E FFFFFF82 48 04 0A 49 FFFFFF82
   42 FFFFFF84 FFFFFF80 FFFFFF80 FFFFFFC2 00 FFFFFF82 49 11 03 FFFFFF82 25 25 10 05 06
   FFFFFF82 4B FFFFFF82 4D 09 03 FFFFFF82 4C 02 02 08 3C 62 79 6E 61
   6D 65 3E 10 04 06 2F FFFFFF82 47 08 07 FFFFFF82 4F 2F FFFFFF84 00
   FFFFFF82 1A 01 0F 68 61 73 44 65 66 69 6E 69 74 65 53
   69 7A 65 08 07 FFFFFF82 51 07 FFFFFF84 00 FFFFFF82 52 01 03 6D 61
   78 15 04 FFFFFF82 53 FFFFFF82 56 14 04 FFFFFF82 54 FFFFFF82 59 16 04 FFFFFF82
   55 FFFFFF82 57 10 03 1E FFFFFF82 56 04 09 20 FFFFFF82 50 FFFFFF84 FFFFFF80 FFFFFF80
   FFFFFFC2 00 21 10 06 06 29 FFFFFF82 55 FFFFFF82 58 10 04 06 2C FFFFFF82
   55 10 04 06 2F FFFFFF82 55 08 09 FFFFFF82 5B 07 FFFFFFC2 FFFFFF80 FFFFFF84 00
   FFFFFF82 5C 01 05 65 6D 70 74 79 15 02 FFFFFF82 5D 12 05 FFFFFF82
   5E 0A FFFFFF82 62 06 0B FFFFFF82 5F FFFFFF82 60 FFFFFF84 FFFFFF80 FFFFFF80 FFFFFF80 00 FFFFFF82
   5D 02 0C 3C 72 65 66 69 6E 65 6D 65 6E 74 3E 08
   08 FFFFFF82 61 07 FFFFFFA0 FFFFFF80 04 FFFFFF82 5D 01 06 65 6D 70 74 79
   20 10 03 06 2F 22 
  Signature: length = 0x2
   00 07 
  SourceFile: "Iterable.scala"
  minor version: 0
  major version: 49
  Constant pool:
class	java/lang/Object
class	scala/Iterable
Asciz	()Lscala/Iterator;;
Asciz	()Lscala/Iterator<TA;>;;
Asciz	(Ljava/lang/String;Ljava/lang/String;Ljava/lang/String;)Ljava/lang/String;;
Asciz	(Lscala/StringBuilder;Ljava/lang/String;Ljava/lang/String;Ljava/lang/String;)Lscala/StringBuilder;;
Asciz	<A:Ljava/lang/Object;>Ljava/lang/Object;;
Asciz	Iterable.scala;
Asciz	ScalaSig;
Asciz	Signature;
Asciz	SourceFile;
Asciz	addString;
Asciz	elements;
Asciz	java/lang/Object;
Asciz	mkString;
Asciz	scala/Iterable;

{
public abstract scala.StringBuilder addString(scala.StringBuilder, java.lang.String, java.lang.String, java.lang.String);
  Signature: (Lscala/StringBuilder;Ljava/lang/String;Ljava/lang/String;Ljava/lang/String;)Lscala/StringBuilder;

public abstract java.lang.String mkString(java.lang.String, java.lang.String, java.lang.String);
  Signature: (Ljava/lang/String;Ljava/lang/String;Ljava/lang/String;)Ljava/lang/String;

public abstract scala.Iterator elements();
  Signature: ()Lscala/Iterator;
  Signature: length = 0x2
   00 04 

}

