Compiled from "Ordering.scala"
public interface scala.Ordering extends java.util.Comparator,scala.PartialOrdering,scala.ScalaObject
  SourceFile: "Ordering.scala"
  Signature: length = 0x2
   00 18 
  ScalaSig: length = 0x151E
   05 00 FFFFFF85 2F 06 07 01 02 FFFFFF90 FFFFFF80 FFFFFF81 00 05 02 08 4F
   72 64 65 72 69 6E 67 0A 01 03 01 05 73 63 61 6C
   61 03 00 15 02 06 17 13 05 00 07 0F 21 24 10 02
   08 0D 0D 01 09 0A 02 0A 0B 01 04 6C 61 6E 67 0A
   01 0C 01 04 6A 61 76 61 09 02 0E 09 02 06 4F 62
   6A 65 63 74 10 03 10 13 15 0D 01 11 0A 02 12 0B
   01 04 75 74 69 6C 09 02 14 11 02 0A 43 6F 6D 70
   61 72 61 74 6F 72 10 02 16 17 0C 00 04 08 18 00
   FFFFFF84 FFFFFF80 FFFFFF80 FFFFFFC2 00 19 02 01 54 11 02 1A 1E 10 02 1B
   1C 0D 01 02 09 02 1D 02 02 07 4E 6F 74 68 69 6E
   67 10 02 1B 1F 09 02 20 02 02 03 41 6E 79 10 03
   1B 22 15 09 02 23 02 02 0F 50 61 72 74 69 61 6C
   4F 72 64 65 72 69 6E 67 10 02 1B 25 09 02 26 02
   02 0B 53 63 61 6C 61 4F 62 6A 65 63 74 08 05 28
   00 FFFFFF84 00 29 01 06 24 69 6E 69 74 24 14 01 2A 10
   02 1B 2B 09 02 2C 02 02 04 55 6E 69 74 08 05 2E
   00 FFFFFF86 00 2F 01 07 63 6F 6D 70 61 72 65 14 03 30
   33 35 10 02 1B 31 09 02 32 02 02 03 49 6E 74 08
   05 34 2D FFFFFFC0 00 15 01 01 78 08 05 36 2D FFFFFFC0 00 15
   01 01 79 08 05 38 00 FFFFFF84 20 39 01 04 6C 74 65 71
   14 03 3A 3D 3E 10 02 1B 3B 09 02 3C 02 02 07 42
   6F 6F 6C 65 61 6E 08 05 34 37 FFFFFFC0 00 15 08 05 36
   37 FFFFFFC0 00 15 08 05 40 00 FFFFFF84 20 41 01 04 67 74 65
   71 14 03 3A 42 43 08 05 34 3F FFFFFFC0 00 15 08 05 36
   3F FFFFFFC0 00 15 08 05 45 00 FFFFFF84 20 46 01 02 6C 74 14
   03 3A 47 48 08 05 34 44 FFFFFFC0 00 15 08 05 36 44 FFFFFFC0
   00 15 08 05 4A 00 FFFFFF84 20 4B 01 02 67 74 14 03 3A
   4C 4D 08 05 34 49 FFFFFFC0 00 15 08 05 36 49 FFFFFFC0 00 15
   08 05 4F 00 FFFFFF84 20 50 01 05 65 71 75 69 76 14 03
   3A 51 52 08 05 34 4E FFFFFFC0 00 15 08 05 36 4E FFFFFFC0 00
   15 08 05 54 00 FFFFFF84 00 55 01 03 6D 61 78 14 03 15
   56 57 08 05 34 53 FFFFFFC0 00 15 08 05 36 53 FFFFFFC0 00 15
   08 05 59 00 FFFFFF84 00 5A 01 03 6D 69 6E 14 03 15 5B
   5C 08 05 34 58 FFFFFFC0 00 15 08 05 36 58 FFFFFFC0 00 15 08
   05 5E 00 FFFFFF84 20 5F 01 07 72 65 76 65 72 73 65 15
   01 60 10 03 1B 00 15 06 08 62 00 FFFFFF84 FFFFFF80 FFFFFF80 FFFFFF80 00
   63 02 03 4F 70 73 13 03 61 07 24 08 08 65 61 FFFFFF82
   FFFFFF80 FFFFFFA0 FFFFFF80 04 15 01 03 6C 68 73 08 05 67 61 FFFFFF84 00
   68 01 06 3C 69 6E 69 74 3E 14 02 69 6B 10 02 6A
   61 0D 01 00 08 05 65 66 FFFFFFC0 00 15 08 05 6D 61 FFFFFF84
   00 6E 01 05 24 6C 65 73 73 14 02 3A 6F 08 05 70
   6C FFFFFFC0 00 15 01 03 72 68 73 08 05 72 61 FFFFFF84 00 73
   01 08 24 6C 65 73 73 24 65 71 14 02 3A 74 08 05
   70 71 FFFFFFC0 00 15 08 05 76 61 FFFFFF84 00 77 01 08 24 67
   72 65 61 74 65 72 14 02 3A 78 08 05 70 75 FFFFFFC0 00
   15 08 05 7A 61 FFFFFF84 00 7B 01 0B 24 67 72 65 61 74
   65 72 24 65 71 14 02 3A 7C 08 05 70 79 FFFFFFC0 00 15
   08 05 4F 61 FFFFFF84 00 7E 14 02 3A 7F 08 05 70 7D FFFFFFC0
   00 15 08 06 54 61 FFFFFF84 00 FFFFFF81 01 14 03 15 FFFFFF81 02 08
   06 70 FFFFFF81 00 FFFFFFC0 00 15 08 06 59 61 FFFFFF84 00 FFFFFF81 04 14
   03 15 FFFFFF81 05 08 06 70 FFFFFF81 03 FFFFFFC0 00 15 08 07 FFFFFF81 07
   00 FFFFFF84 01 FFFFFF81 08 01 0D 6D 6B 4F 72 64 65 72 69 6E
   67 4F 70 73 14 03 69 FFFFFF81 09 08 06 65 FFFFFF81 06 FFFFFFC0 00
   15 07 07 FFFFFF81 0B 02 FFFFFF88 02 FFFFFF81 0C 01 08 4F 72 64 65
   72 69 6E 67 10 03 1B FFFFFF81 0D 06 09 01 02 FFFFFF84 FFFFFF80 FFFFFF80
   FFFFFF88 02 FFFFFF81 0E 13 04 FFFFFF81 0D 07 24 08 07 67 FFFFFF81 0D FFFFFF84
   00 FFFFFF81 10 14 02 FFFFFF81 0C 08 08 FFFFFF81 12 FFFFFF81 0D FFFFFF84 00 FFFFFF81
   13 01 05 61 70 70 6C 79 15 04 FFFFFF81 14 FFFFFF81 17 16 04
   FFFFFF81 15 FFFFFF81 18 10 04 1B 00 FFFFFF81 16 10 03 16 FFFFFF81 17 04
   09 18 FFFFFF81 11 FFFFFF84 FFFFFF80 FFFFFF80 FFFFFFC2 00 19 08 08 FFFFFF81 19 FFFFFF81 11
   FFFFFFC0 01 FFFFFF81 15 01 03 6F 72 64 08 08 FFFFFF81 1B FFFFFF81 0D FFFFFF84
   00 FFFFFF81 1C 01 07 6F 72 64 65 72 65 64 15 04 FFFFFF81 1D
   FFFFFF81 1F 10 04 1B 00 FFFFFF81 1E 10 03 16 FFFFFF81 1F 04 0B FFFFFF81
   20 FFFFFF81 1A FFFFFF84 FFFFFF80 FFFFFF80 FFFFFFC2 00 FFFFFF81 21 02 01 41 11 03 1A
   FFFFFF81 22 10 05 1B FFFFFF81 23 FFFFFF81 1E 09 03 FFFFFF81 24 02 02 07
   4F 72 64 65 72 65 64 06 0B FFFFFF81 26 FFFFFF81 0D FFFFFF84 FFFFFF90 FFFFFF80
   FFFFFF81 00 FFFFFF81 27 02 0C 55 6E 69 74 4F 72 64 65 72 69
   6E 67 13 06 FFFFFF81 25 07 FFFFFF81 28 24 10 03 1B 00 2A 08
   06 28 FFFFFF81 25 FFFFFF84 00 29 08 07 2E FFFFFF81 25 FFFFFF84 00 FFFFFF81 2B
   14 05 30 FFFFFF81 2C FFFFFF81 2D 08 06 34 FFFFFF81 2A FFFFFFC0 00 2A 08
   06 36 FFFFFF81 2A FFFFFFC0 00 2A 07 08 FFFFFF81 2F FFFFFF81 0D FFFFFF88 03 FFFFFF81
   30 01 04 55 6E 69 74 10 04 FFFFFF81 31 FFFFFF81 32 0D 02 FFFFFF81
   0D 06 0A 2C FFFFFF81 0D FFFFFF84 FFFFFF80 FFFFFF80 FFFFFF88 02 FFFFFF81 33 13 06 FFFFFF81
   32 07 FFFFFF81 34 24 10 04 FFFFFF81 31 FFFFFF81 25 08 07 67 FFFFFF81 32
   FFFFFF84 00 FFFFFF81 36 14 02 FFFFFF81 30 06 0B FFFFFF81 38 FFFFFF81 0D FFFFFF84 FFFFFF90
   FFFFFF80 FFFFFF81 00 FFFFFF81 39 02 0F 42 6F 6F 6C 65 61 6E 4F 72
   64 65 72 69 6E 67 13 06 FFFFFF81 37 07 FFFFFF81 3A 24 10 03
   1B 00 3A 08 06 28 FFFFFF81 37 FFFFFF84 00 29 08 07 2E FFFFFF81 37
   FFFFFF84 00 FFFFFF81 3D 14 05 30 FFFFFF81 3E FFFFFF81 3F 08 06 34 FFFFFF81 3C
   FFFFFFC0 00 3A 08 06 36 FFFFFF81 3C FFFFFFC0 00 3A 07 08 FFFFFF81 41 FFFFFF81
   0D FFFFFF88 03 FFFFFF81 42 01 07 42 6F 6F 6C 65 61 6E 10 04
   FFFFFF81 31 FFFFFF81 43 06 0A 3C FFFFFF81 0D FFFFFF84 FFFFFF80 FFFFFF80 FFFFFF88 02 FFFFFF81 44
   13 06 FFFFFF81 43 07 FFFFFF81 45 24 10 04 FFFFFF81 31 FFFFFF81 37 08 07
   67 FFFFFF81 43 FFFFFF84 00 FFFFFF81 47 14 02 FFFFFF81 42 06 0B FFFFFF81 49 FFFFFF81
   0D FFFFFF84 FFFFFF90 FFFFFF80 FFFFFF81 00 FFFFFF81 4A 02 0C 42 79 74 65 4F 72
   64 65 72 69 6E 67 13 06 FFFFFF81 48 07 FFFFFF81 4B 24 10 04
   1B 00 FFFFFF81 4C 10 03 1B FFFFFF81 4D 09 03 FFFFFF81 4E 02 02 04
   42 79 74 65 08 06 28 FFFFFF81 48 FFFFFF84 00 29 08 07 2E FFFFFF81
   48 FFFFFF84 00 FFFFFF81 51 14 05 30 FFFFFF81 52 FFFFFF81 53 08 07 34 FFFFFF81
   50 FFFFFFC0 00 FFFFFF81 4C 08 07 36 FFFFFF81 50 FFFFFFC0 00 FFFFFF81 4C 07 08
   FFFFFF81 55 FFFFFF81 0D FFFFFF88 03 FFFFFF81 56 01 04 42 79 74 65 10 04
   FFFFFF81 31 FFFFFF81 57 06 0B FFFFFF81 4E FFFFFF81 0D FFFFFF84 FFFFFF80 FFFFFF80 FFFFFF88 02 FFFFFF81
   58 13 06 FFFFFF81 57 07 FFFFFF81 59 24 10 04 FFFFFF81 31 FFFFFF81 48 08
   07 67 FFFFFF81 57 FFFFFF84 00 FFFFFF81 5B 14 02 FFFFFF81 56 06 0B FFFFFF81 5D
   FFFFFF81 0D FFFFFF84 FFFFFF90 FFFFFF80 FFFFFF81 00 FFFFFF81 5E 02 0C 43 68 61 72 4F
   72 64 65 72 69 6E 67 13 06 FFFFFF81 5C 07 FFFFFF81 5F 24 10
   04 1B 00 FFFFFF81 60 10 03 1B FFFFFF81 61 09 03 FFFFFF81 62 02 02
   04 43 68 61 72 08 06 28 FFFFFF81 5C FFFFFF84 00 29 08 07 2E
   FFFFFF81 5C FFFFFF84 00 FFFFFF81 65 14 05 30 FFFFFF81 66 FFFFFF81 67 08 07 34
   FFFFFF81 64 FFFFFFC0 00 FFFFFF81 60 08 07 36 FFFFFF81 64 FFFFFFC0 00 FFFFFF81 60 07
   08 FFFFFF81 69 FFFFFF81 0D FFFFFF88 03 FFFFFF81 6A 01 04 43 68 61 72 10
   04 FFFFFF81 31 FFFFFF81 6B 06 0B FFFFFF81 62 FFFFFF81 0D FFFFFF84 FFFFFF80 FFFFFF80 FFFFFF88 02
   FFFFFF81 6C 13 06 FFFFFF81 6B 07 FFFFFF81 6D 24 10 04 FFFFFF81 31 FFFFFF81 5C
   08 07 67 FFFFFF81 6B FFFFFF84 00 FFFFFF81 6F 14 02 FFFFFF81 6A 06 0B FFFFFF81
   71 FFFFFF81 0D FFFFFF84 FFFFFF90 FFFFFF80 FFFFFF81 00 FFFFFF81 72 02 0D 53 68 6F 72
   74 4F 72 64 65 72 69 6E 67 13 06 FFFFFF81 70 07 FFFFFF81 73
   24 10 04 1B 00 FFFFFF81 74 10 03 1B FFFFFF81 75 09 03 FFFFFF81 76
   02 02 05 53 68 6F 72 74 08 06 28 FFFFFF81 70 FFFFFF84 00 29
   08 07 2E FFFFFF81 70 FFFFFF84 00 FFFFFF81 79 14 05 30 FFFFFF81 7A FFFFFF81 7B
   08 07 34 FFFFFF81 78 FFFFFFC0 00 FFFFFF81 74 08 07 36 FFFFFF81 78 FFFFFFC0 00
   FFFFFF81 74 07 08 FFFFFF81 7D FFFFFF81 0D FFFFFF88 03 FFFFFF81 7E 01 05 53 68
   6F 72 74 10 04 FFFFFF81 31 FFFFFF81 7F 06 0B FFFFFF81 76 FFFFFF81 0D FFFFFF84
   FFFFFF80 FFFFFF80 FFFFFF88 02 FFFFFF82 00 13 06 FFFFFF81 7F 07 FFFFFF82 01 24 10 04
   FFFFFF81 31 FFFFFF81 70 08 07 67 FFFFFF81 7F FFFFFF84 00 FFFFFF82 03 14 02 FFFFFF81
   7E 06 0B FFFFFF82 05 FFFFFF81 0D FFFFFF84 FFFFFF90 FFFFFF80 FFFFFF81 00 FFFFFF82 06 02 0B
   49 6E 74 4F 72 64 65 72 69 6E 67 13 06 FFFFFF82 04 07
   FFFFFF82 07 24 10 03 1B 00 30 08 06 28 FFFFFF82 04 FFFFFF84 00 29
   08 07 2E FFFFFF82 04 FFFFFF84 00 FFFFFF82 0A 14 05 30 FFFFFF82 0B FFFFFF82 0C
   08 06 34 FFFFFF82 09 FFFFFFC0 00 30 08 06 36 FFFFFF82 09 FFFFFFC0 00 30
   07 08 FFFFFF82 0E FFFFFF81 0D FFFFFF88 03 FFFFFF82 0F 01 03 49 6E 74 10
   04 FFFFFF81 31 FFFFFF82 10 06 0A 32 FFFFFF81 0D FFFFFF84 FFFFFF80 FFFFFF80 FFFFFF88 02 FFFFFF82
   11 13 06 FFFFFF82 10 07 FFFFFF82 12 24 10 04 FFFFFF81 31 FFFFFF82 04 08
   07 67 FFFFFF82 10 FFFFFF84 00 FFFFFF82 14 14 02 FFFFFF82 0F 06 0B FFFFFF82 16
   FFFFFF81 0D FFFFFF84 FFFFFF90 FFFFFF80 FFFFFF81 00 FFFFFF82 17 02 0C 4C 6F 6E 67 4F
   72 64 65 72 69 6E 67 13 06 FFFFFF82 15 07 FFFFFF82 18 24 10
   04 1B 00 FFFFFF82 19 10 03 1B FFFFFF82 1A 09 03 FFFFFF82 1B 02 02
   04 4C 6F 6E 67 08 06 28 FFFFFF82 15 FFFFFF84 00 29 08 07 2E
   FFFFFF82 15 FFFFFF84 00 FFFFFF82 1E 14 05 30 FFFFFF82 1F FFFFFF82 20 08 07 34
   FFFFFF82 1D FFFFFFC0 00 FFFFFF82 19 08 07 36 FFFFFF82 1D FFFFFFC0 00 FFFFFF82 19 07
   08 FFFFFF82 22 FFFFFF81 0D FFFFFF88 03 FFFFFF82 23 01 04 4C 6F 6E 67 10
   04 FFFFFF81 31 FFFFFF82 24 06 0B FFFFFF82 1B FFFFFF81 0D FFFFFF84 FFFFFF80 FFFFFF80 FFFFFF88 02
   FFFFFF82 25 13 06 FFFFFF82 24 07 FFFFFF82 26 24 10 04 FFFFFF81 31 FFFFFF82 15
   08 07 67 FFFFFF82 24 FFFFFF84 00 FFFFFF82 28 14 02 FFFFFF82 23 06 0B FFFFFF82
   2A FFFFFF81 0D FFFFFF84 FFFFFF90 FFFFFF80 FFFFFF81 00 FFFFFF82 2B 02 0D 46 6C 6F 61
   74 4F 72 64 65 72 69 6E 67 13 06 FFFFFF82 29 07 FFFFFF82 2C
   24 10 04 1B 00 FFFFFF82 2D 10 03 1B FFFFFF82 2E 09 03 FFFFFF82 2F
   02 02 05 46 6C 6F 61 74 08 06 28 FFFFFF82 29 FFFFFF84 00 29
   08 07 2E FFFFFF82 29 FFFFFF84 00 FFFFFF82 32 14 05 30 FFFFFF82 33 FFFFFF82 34
   08 07 34 FFFFFF82 31 FFFFFFC0 00 FFFFFF82 2D 08 07 36 FFFFFF82 31 FFFFFFC0 00
   FFFFFF82 2D 07 08 FFFFFF82 36 FFFFFF81 0D FFFFFF88 03 FFFFFF82 37 01 05 46 6C
   6F 61 74 10 04 FFFFFF81 31 FFFFFF82 38 06 0B FFFFFF82 2F FFFFFF81 0D FFFFFF84
   FFFFFF80 FFFFFF80 FFFFFF88 02 FFFFFF82 39 13 06 FFFFFF82 38 07 FFFFFF82 3A 24 10 04
   FFFFFF81 31 FFFFFF82 29 08 07 67 FFFFFF82 38 FFFFFF84 00 FFFFFF82 3C 14 02 FFFFFF82
   37 06 0B FFFFFF82 3E FFFFFF81 0D FFFFFF84 FFFFFF90 FFFFFF80 FFFFFF81 00 FFFFFF82 3F 02 0E
   44 6F 75 62 6C 65 4F 72 64 65 72 69 6E 67 13 06
   FFFFFF82 3D 07 FFFFFF82 40 24 10 04 1B 00 FFFFFF82 41 10 03 1B FFFFFF82
   42 09 03 FFFFFF82 43 02 02 06 44 6F 75 62 6C 65 08 06
   28 FFFFFF82 3D FFFFFF84 00 29 08 07 2E FFFFFF82 3D FFFFFF84 00 FFFFFF82 46 14
   05 30 FFFFFF82 47 FFFFFF82 48 08 07 34 FFFFFF82 45 FFFFFFC0 00 FFFFFF82 41 08
   07 36 FFFFFF82 45 FFFFFFC0 00 FFFFFF82 41 07 08 FFFFFF82 4A FFFFFF81 0D FFFFFF88 03
   FFFFFF82 4B 01 06 44 6F 75 62 6C 65 10 04 FFFFFF81 31 FFFFFF82 4C
   06 0B FFFFFF82 43 FFFFFF81 0D FFFFFF84 FFFFFF80 FFFFFF80 FFFFFF88 02 FFFFFF82 4D 13 06 FFFFFF82
   4C 07 FFFFFF82 4E 24 10 04 FFFFFF81 31 FFFFFF82 3D 08 07 67 FFFFFF82 4C
   FFFFFF84 00 FFFFFF82 50 14 02 FFFFFF82 4B 06 0B FFFFFF82 52 FFFFFF81 0D FFFFFF84 FFFFFF90
   FFFFFF80 FFFFFF81 00 FFFFFF82 53 02 0E 42 69 67 49 6E 74 4F 72 64
   65 72 69 6E 67 13 06 FFFFFF82 51 07 FFFFFF82 54 24 10 04 1B
   00 FFFFFF82 55 10 03 1B FFFFFF82 56 09 03 FFFFFF82 57 02 02 06 42
   69 67 49 6E 74 08 06 28 FFFFFF82 51 FFFFFF84 00 29 08 07 2E
   FFFFFF82 51 FFFFFF84 00 FFFFFF82 5A 14 05 30 FFFFFF82 5B FFFFFF82 5C 08 07 34
   FFFFFF82 59 FFFFFFC0 00 FFFFFF82 55 08 07 36 FFFFFF82 59 FFFFFFC0 00 FFFFFF82 55 07
   08 FFFFFF82 5E FFFFFF81 0D FFFFFF88 03 FFFFFF82 5F 01 06 42 69 67 49 6E
   74 10 04 FFFFFF81 31 FFFFFF82 60 06 0B FFFFFF82 57 FFFFFF81 0D FFFFFF84 FFFFFF80 FFFFFF80
   FFFFFF88 02 FFFFFF82 61 13 06 FFFFFF82 60 07 FFFFFF82 62 24 10 04 FFFFFF81 31
   FFFFFF82 51 08 07 67 FFFFFF82 60 FFFFFF84 00 FFFFFF82 64 14 02 FFFFFF82 5F 06
   0B FFFFFF82 66 FFFFFF81 0D FFFFFF84 FFFFFF90 FFFFFF80 FFFFFF81 00 FFFFFF82 67 02 12 42 69
   67 44 65 63 69 6D 61 6C 4F 72 64 65 72 69 6E 67
   13 06 FFFFFF82 65 07 FFFFFF82 68 24 10 04 1B 00 FFFFFF82 69 10 03
   1B FFFFFF82 6A 09 03 FFFFFF82 6B 02 02 0A 42 69 67 44 65 63
   69 6D 61 6C 08 06 28 FFFFFF82 65 FFFFFF84 00 29 08 07 2E FFFFFF82
   65 FFFFFF84 00 FFFFFF82 6E 14 05 30 FFFFFF82 6F FFFFFF82 70 08 07 34 FFFFFF82
   6D FFFFFFC0 00 FFFFFF82 69 08 07 36 FFFFFF82 6D FFFFFFC0 00 FFFFFF82 69 07 08
   FFFFFF82 72 FFFFFF81 0D FFFFFF88 03 FFFFFF82 73 01 0A 42 69 67 44 65 63
   69 6D 61 6C 10 04 FFFFFF81 31 FFFFFF82 74 06 0B FFFFFF82 6B FFFFFF81 0D
   FFFFFF84 FFFFFF80 FFFFFF80 FFFFFF88 02 FFFFFF82 75 13 06 FFFFFF82 74 07 FFFFFF82 76 24 10
   04 FFFFFF81 31 FFFFFF82 65 08 07 67 FFFFFF82 74 FFFFFF84 00 FFFFFF82 78 14 02
   FFFFFF82 73 06 0B FFFFFF82 7A FFFFFF81 0D FFFFFF84 FFFFFF90 FFFFFF80 FFFFFF81 00 FFFFFF82 7B 02
   0E 53 74 72 69 6E 67 4F 72 64 65 72 69 6E 67 13
   06 FFFFFF82 79 07 FFFFFF82 7C 24 10 04 1B 00 FFFFFF82 7D 10 04 FFFFFF82
   7E FFFFFF83 01 0E 03 1B FFFFFF82 7F 09 03 FFFFFF83 00 02 01 06 50
   72 65 64 65 66 09 04 FFFFFF83 02 FFFFFF83 03 02 06 53 74 72
   69 6E 67 0A 03 FFFFFF83 00 02 08 06 28 FFFFFF82 79 FFFFFF84 00 29
   08 07 2E FFFFFF82 79 FFFFFF84 00 FFFFFF83 06 14 05 30 FFFFFF83 07 FFFFFF83 08
   08 07 34 FFFFFF83 05 FFFFFFC0 00 FFFFFF82 7D 08 07 36 FFFFFF83 05 FFFFFFC0 00
   FFFFFF82 7D 07 08 FFFFFF83 0A FFFFFF81 0D FFFFFF88 03 FFFFFF83 0B 01 06 53 74
   72 69 6E 67 10 04 FFFFFF81 31 FFFFFF83 0C 06 0B FFFFFF83 02 FFFFFF81 0D
   FFFFFF84 FFFFFF80 FFFFFF80 FFFFFF88 02 FFFFFF83 0D 13 06 FFFFFF83 0C 07 FFFFFF83 0E 24 10
   04 FFFFFF81 31 FFFFFF82 79 08 07 67 FFFFFF83 0C FFFFFF84 00 FFFFFF83 10 14 02
   FFFFFF83 0B 08 08 FFFFFF83 12 FFFFFF81 0D FFFFFF84 01 FFFFFF83 13 01 06 4F 70
   74 69 6F 6E 15 04 FFFFFF83 14 FFFFFF83 1A 16 04 FFFFFF83 15 FFFFFF83 1B
   10 04 1B 00 FFFFFF83 16 10 05 1B FFFFFF83 17 FFFFFF83 19 09 03 FFFFFF83
   18 02 02 06 4F 70 74 69 6F 6E 10 03 16 FFFFFF83 1A 04
   09 18 FFFFFF83 11 FFFFFF84 FFFFFF80 FFFFFF80 FFFFFFC2 00 19 08 08 FFFFFF81 19 FFFFFF83 11
   FFFFFFC0 01 FFFFFF83 1C 10 04 1B 00 FFFFFF83 19 08 08 FFFFFF83 1E FFFFFF81 0D
   FFFFFF84 01 FFFFFF83 1F 01 08 49 74 65 72 61 62 6C 65 15 04
   FFFFFF83 20 FFFFFF83 2A 16 04 FFFFFF83 21 FFFFFF83 2B 10 04 1B 00 FFFFFF83 22
   10 06 FFFFFF83 23 FFFFFF83 26 FFFFFF83 29 0E 03 1B FFFFFF83 24 09 03 FFFFFF83
   25 02 01 07 70 61 63 6B 61 67 65 09 04 FFFFFF83 27 FFFFFF83
   28 02 08 49 74 65 72 61 62 6C 65 0A 03 FFFFFF83 25 02
   10 03 16 FFFFFF83 2A 04 09 18 FFFFFF83 1D FFFFFF84 FFFFFF80 FFFFFF80 FFFFFFC2 00 19
   08 08 FFFFFF81 19 FFFFFF83 1D FFFFFFC0 01 FFFFFF83 2C 10 04 1B 00 FFFFFF83 29
   08 08 FFFFFF83 2E FFFFFF81 0D FFFFFF84 01 FFFFFF83 2F 01 06 54 75 70 6C
   65 32 15 06 FFFFFF83 30 FFFFFF83 36 FFFFFF83 39 16 06 FFFFFF83 31 FFFFFF83 3B
   FFFFFF83 3E 10 04 1B 00 FFFFFF83 32 10 07 1B FFFFFF83 33 FFFFFF83 35 FFFFFF83
   38 09 03 FFFFFF83 34 02 02 06 54 75 70 6C 65 32 10 03
   16 FFFFFF83 36 04 0A FFFFFF83 37 FFFFFF83 2D FFFFFF84 FFFFFF80 FFFFFF80 FFFFFFC2 00 19 02
   02 54 31 10 03 16 FFFFFF83 39 04 0A FFFFFF83 3A FFFFFF83 2D FFFFFF84 FFFFFF80
   FFFFFF80 FFFFFFC2 00 19 02 02 54 32 08 08 FFFFFF83 3C FFFFFF83 2D FFFFFFC0 01
   FFFFFF83 3D 01 04 6F 72 64 31 10 04 1B 00 FFFFFF83 35 08 08
   FFFFFF83 3F FFFFFF83 2D FFFFFFC0 01 FFFFFF83 40 01 04 6F 72 64 32 10 04
   1B 00 FFFFFF83 38 08 08 FFFFFF83 42 FFFFFF81 0D FFFFFF84 01 FFFFFF83 43 01 06
   54 75 70 6C 65 33 15 08 FFFFFF83 44 FFFFFF83 4A FFFFFF83 4C FFFFFF83 4E
   16 08 FFFFFF83 45 FFFFFF83 50 FFFFFF83 52 FFFFFF83 54 10 04 1B 00 FFFFFF83 46
   10 09 1B FFFFFF83 47 FFFFFF83 49 FFFFFF83 4B FFFFFF83 4D 09 03 FFFFFF83 48 02
   02 06 54 75 70 6C 65 33 10 03 16 FFFFFF83 4A 04 0A FFFFFF83
   37 FFFFFF83 41 FFFFFF84 FFFFFF80 FFFFFF80 FFFFFFC2 00 19 10 03 16 FFFFFF83 4C 04 0A
   FFFFFF83 3A FFFFFF83 41 FFFFFF84 FFFFFF80 FFFFFF80 FFFFFFC2 00 19 10 03 16 FFFFFF83 4E 04
   0A FFFFFF83 4F FFFFFF83 41 FFFFFF84 FFFFFF80 FFFFFF80 FFFFFFC2 00 19 02 02 54 33 08
   08 FFFFFF83 3C FFFFFF83 41 FFFFFFC0 01 FFFFFF83 51 10 04 1B 00 FFFFFF83 49 08
   08 FFFFFF83 3F FFFFFF83 41 FFFFFFC0 01 FFFFFF83 53 10 04 1B 00 FFFFFF83 4B 08
   08 FFFFFF83 55 FFFFFF83 41 FFFFFFC0 01 FFFFFF83 56 01 04 6F 72 64 33 10
   04 1B 00 FFFFFF83 4D 08 08 FFFFFF83 58 FFFFFF81 0D FFFFFF84 01 FFFFFF83 59 01
   06 54 75 70 6C 65 34 15 0A FFFFFF83 5A FFFFFF83 60 FFFFFF83 62 FFFFFF83
   64 FFFFFF83 66 16 0A FFFFFF83 5B FFFFFF83 68 FFFFFF83 6A FFFFFF83 6C FFFFFF83 6E 10
   04 1B 00 FFFFFF83 5C 10 0B 1B FFFFFF83 5D FFFFFF83 5F FFFFFF83 61 FFFFFF83 63
   FFFFFF83 65 09 03 FFFFFF83 5E 02 02 06 54 75 70 6C 65 34 10
   03 16 FFFFFF83 60 04 0A FFFFFF83 37 FFFFFF83 57 FFFFFF84 FFFFFF80 FFFFFF80 FFFFFFC2 00 19
   10 03 16 FFFFFF83 62 04 0A FFFFFF83 3A FFFFFF83 57 FFFFFF84 FFFFFF80 FFFFFF80 FFFFFFC2 00
   19 10 03 16 FFFFFF83 64 04 0A FFFFFF83 4F FFFFFF83 57 FFFFFF84 FFFFFF80 FFFFFF80 FFFFFFC2
   00 19 10 03 16 FFFFFF83 66 04 0A FFFFFF83 67 FFFFFF83 57 FFFFFF84 FFFFFF80 FFFFFF80
   FFFFFFC2 00 19 02 02 54 34 08 08 FFFFFF83 3C FFFFFF83 57 FFFFFFC0 01 FFFFFF83
   69 10 04 1B 00 FFFFFF83 5F 08 08 FFFFFF83 3F FFFFFF83 57 FFFFFFC0 01 FFFFFF83
   6B 10 04 1B 00 FFFFFF83 61 08 08 FFFFFF83 55 FFFFFF83 57 FFFFFFC0 01 FFFFFF83
   6D 10 04 1B 00 FFFFFF83 63 08 08 FFFFFF83 6F FFFFFF83 57 FFFFFFC0 01 FFFFFF83
   70 01 04 6F 72 64 34 10 04 1B 00 FFFFFF83 65 08 08 FFFFFF83
   72 FFFFFF81 0D FFFFFF84 01 FFFFFF83 73 01 06 54 75 70 6C 65 35 15
   0C FFFFFF83 74 FFFFFF83 7A FFFFFF83 7C FFFFFF83 7E FFFFFF84 00 FFFFFF84 02 16 0C FFFFFF83
   75 FFFFFF84 04 FFFFFF84 06 FFFFFF84 08 FFFFFF84 0A FFFFFF84 0C 10 04 1B 00 FFFFFF83
   76 10 0D 1B FFFFFF83 77 FFFFFF83 79 FFFFFF83 7B FFFFFF83 7D FFFFFF83 7F FFFFFF84 01
   09 03 FFFFFF83 78 02 02 06 54 75 70 6C 65 35 10 03 16
   FFFFFF83 7A 04 0A FFFFFF83 37 FFFFFF83 71 FFFFFF84 FFFFFF80 FFFFFF80 FFFFFFC2 00 19 10 03
   16 FFFFFF83 7C 04 0A FFFFFF83 3A FFFFFF83 71 FFFFFF84 FFFFFF80 FFFFFF80 FFFFFFC2 00 19 10
   03 16 FFFFFF83 7E 04 0A FFFFFF83 4F FFFFFF83 71 FFFFFF84 FFFFFF80 FFFFFF80 FFFFFFC2 00 19
   10 03 16 FFFFFF84 00 04 0A FFFFFF83 67 FFFFFF83 71 FFFFFF84 FFFFFF80 FFFFFF80 FFFFFFC2 00
   19 10 03 16 FFFFFF84 02 04 0A FFFFFF84 03 FFFFFF83 71 FFFFFF84 FFFFFF80 FFFFFF80 FFFFFFC2
   00 19 02 02 54 35 08 08 FFFFFF83 3C FFFFFF83 71 FFFFFFC0 01 FFFFFF84 05
   10 04 1B 00 FFFFFF83 79 08 08 FFFFFF83 3F FFFFFF83 71 FFFFFFC0 01 FFFFFF84 07
   10 04 1B 00 FFFFFF83 7B 08 08 FFFFFF83 55 FFFFFF83 71 FFFFFFC0 01 FFFFFF84 09
   10 04 1B 00 FFFFFF83 7D 08 08 FFFFFF83 6F FFFFFF83 71 FFFFFFC0 01 FFFFFF84 0B
   10 04 1B 00 FFFFFF83 7F 08 08 FFFFFF84 0D FFFFFF83 71 FFFFFFC0 01 FFFFFF84 0E
   01 04 6F 72 64 35 10 04 1B 00 FFFFFF84 01 08 08 FFFFFF84 10
   FFFFFF81 0D FFFFFF84 01 FFFFFF84 11 01 06 54 75 70 6C 65 36 15 0E
   FFFFFF84 12 FFFFFF84 18 FFFFFF84 1A FFFFFF84 1C FFFFFF84 1E FFFFFF84 20 FFFFFF84 22 16 0E
   FFFFFF84 13 FFFFFF84 24 FFFFFF84 26 FFFFFF84 28 FFFFFF84 2A FFFFFF84 2C FFFFFF84 2E 10 04
   1B 00 FFFFFF84 14 10 0F 1B FFFFFF84 15 FFFFFF84 17 FFFFFF84 19 FFFFFF84 1B FFFFFF84
   1D FFFFFF84 1F FFFFFF84 21 09 03 FFFFFF84 16 02 02 06 54 75 70 6C
   65 36 10 03 16 FFFFFF84 18 04 0A FFFFFF83 37 FFFFFF84 0F FFFFFF84 FFFFFF80 FFFFFF80
   FFFFFFC2 00 19 10 03 16 FFFFFF84 1A 04 0A FFFFFF83 3A FFFFFF84 0F FFFFFF84 FFFFFF80
   FFFFFF80 FFFFFFC2 00 19 10 03 16 FFFFFF84 1C 04 0A FFFFFF83 4F FFFFFF84 0F FFFFFF84
   FFFFFF80 FFFFFF80 FFFFFFC2 00 19 10 03 16 FFFFFF84 1E 04 0A FFFFFF83 67 FFFFFF84 0F
   FFFFFF84 FFFFFF80 FFFFFF80 FFFFFFC2 00 19 10 03 16 FFFFFF84 20 04 0A FFFFFF84 03 FFFFFF84
   0F FFFFFF84 FFFFFF80 FFFFFF80 FFFFFFC2 00 19 10 03 16 FFFFFF84 22 04 0A FFFFFF84 23
   FFFFFF84 0F FFFFFF84 FFFFFF80 FFFFFF80 FFFFFFC2 00 19 02 02 54 36 08 08 FFFFFF83 3C
   FFFFFF84 0F FFFFFFC0 01 FFFFFF84 25 10 04 1B 00 FFFFFF84 17 08 08 FFFFFF83 3F
   FFFFFF84 0F FFFFFFC0 01 FFFFFF84 27 10 04 1B 00 FFFFFF84 19 08 08 FFFFFF83 55
   FFFFFF84 0F FFFFFFC0 01 FFFFFF84 29 10 04 1B 00 FFFFFF84 1B 08 08 FFFFFF83 6F
   FFFFFF84 0F FFFFFFC0 01 FFFFFF84 2B 10 04 1B 00 FFFFFF84 1D 08 08 FFFFFF84 0D
   FFFFFF84 0F FFFFFFC0 01 FFFFFF84 2D 10 04 1B 00 FFFFFF84 1F 08 08 FFFFFF84 2F
   FFFFFF84 0F FFFFFFC0 01 FFFFFF84 30 01 04 6F 72 64 36 10 04 1B 00
   FFFFFF84 21 08 08 FFFFFF84 32 FFFFFF81 0D FFFFFF84 01 FFFFFF84 33 01 06 54 75
   70 6C 65 37 15 10 FFFFFF84 34 FFFFFF84 3A FFFFFF84 3C FFFFFF84 3E FFFFFF84 40
   FFFFFF84 42 FFFFFF84 44 FFFFFF84 46 16 10 FFFFFF84 35 FFFFFF84 48 FFFFFF84 4A FFFFFF84 4C
   FFFFFF84 4E FFFFFF84 50 FFFFFF84 52 FFFFFF84 54 10 04 1B 00 FFFFFF84 36 10 11
   1B FFFFFF84 37 FFFFFF84 39 FFFFFF84 3B FFFFFF84 3D FFFFFF84 3F FFFFFF84 41 FFFFFF84 43 FFFFFF84
   45 09 03 FFFFFF84 38 02 02 06 54 75 70 6C 65 37 10 03
   16 FFFFFF84 3A 04 0A FFFFFF83 37 FFFFFF84 31 FFFFFF84 FFFFFF80 FFFFFF80 FFFFFFC2 00 19 10
   03 16 FFFFFF84 3C 04 0A FFFFFF83 3A FFFFFF84 31 FFFFFF84 FFFFFF80 FFFFFF80 FFFFFFC2 00 19
   10 03 16 FFFFFF84 3E 04 0A FFFFFF83 4F FFFFFF84 31 FFFFFF84 FFFFFF80 FFFFFF80 FFFFFFC2 00
   19 10 03 16 FFFFFF84 40 04 0A FFFFFF83 67 FFFFFF84 31 FFFFFF84 FFFFFF80 FFFFFF80 FFFFFFC2
   00 19 10 03 16 FFFFFF84 42 04 0A FFFFFF84 03 FFFFFF84 31 FFFFFF84 FFFFFF80 FFFFFF80
   FFFFFFC2 00 19 10 03 16 FFFFFF84 44 04 0A FFFFFF84 23 FFFFFF84 31 FFFFFF84 FFFFFF80
   FFFFFF80 FFFFFFC2 00 19 10 03 16 FFFFFF84 46 04 0A FFFFFF84 47 FFFFFF84 31 FFFFFF84
   FFFFFF80 FFFFFF80 FFFFFFC2 00 19 02 02 54 37 08 08 FFFFFF83 3C FFFFFF84 31 FFFFFFC0
   01 FFFFFF84 49 10 04 1B 00 FFFFFF84 39 08 08 FFFFFF83 3F FFFFFF84 31 FFFFFFC0
   01 FFFFFF84 4B 10 04 1B 00 FFFFFF84 3B 08 08 FFFFFF83 55 FFFFFF84 31 FFFFFFC0
   01 FFFFFF84 4D 10 04 1B 00 FFFFFF84 3D 08 08 FFFFFF83 6F FFFFFF84 31 FFFFFFC0
   01 FFFFFF84 4F 10 04 1B 00 FFFFFF84 3F 08 08 FFFFFF84 0D FFFFFF84 31 FFFFFFC0
   01 FFFFFF84 51 10 04 1B 00 FFFFFF84 41 08 08 FFFFFF84 2F FFFFFF84 31 FFFFFFC0
   01 FFFFFF84 53 10 04 1B 00 FFFFFF84 43 08 08 FFFFFF84 55 FFFFFF84 31 FFFFFFC0
   01 FFFFFF84 56 01 04 6F 72 64 37 10 04 1B 00 FFFFFF84 45 08
   08 FFFFFF84 58 FFFFFF81 0D FFFFFF84 01 FFFFFF84 59 01 06 54 75 70 6C 65
   38 15 12 FFFFFF84 5A FFFFFF84 60 FFFFFF84 62 FFFFFF84 64 FFFFFF84 66 FFFFFF84 68 FFFFFF84
   6A FFFFFF84 6C FFFFFF84 6E 16 12 FFFFFF84 5B FFFFFF84 70 FFFFFF84 72 FFFFFF84 74 FFFFFF84
   76 FFFFFF84 78 FFFFFF84 7A FFFFFF84 7C FFFFFF84 7E 10 04 1B 00 FFFFFF84 5C 10
   13 1B FFFFFF84 5D FFFFFF84 5F FFFFFF84 61 FFFFFF84 63 FFFFFF84 65 FFFFFF84 67 FFFFFF84 69
   FFFFFF84 6B FFFFFF84 6D 09 03 FFFFFF84 5E 02 02 06 54 75 70 6C 65
   38 10 03 16 FFFFFF84 60 04 0A FFFFFF83 37 FFFFFF84 57 FFFFFF84 FFFFFF80 FFFFFF80 FFFFFFC2
   00 19 10 03 16 FFFFFF84 62 04 0A FFFFFF83 3A FFFFFF84 57 FFFFFF84 FFFFFF80 FFFFFF80
   FFFFFFC2 00 19 10 03 16 FFFFFF84 64 04 0A FFFFFF83 4F FFFFFF84 57 FFFFFF84 FFFFFF80
   FFFFFF80 FFFFFFC2 00 19 10 03 16 FFFFFF84 66 04 0A FFFFFF83 67 FFFFFF84 57 FFFFFF84
   FFFFFF80 FFFFFF80 FFFFFFC2 00 19 10 03 16 FFFFFF84 68 04 0A FFFFFF84 03 FFFFFF84 57
   FFFFFF84 FFFFFF80 FFFFFF80 FFFFFFC2 00 19 10 03 16 FFFFFF84 6A 04 0A FFFFFF84 23 FFFFFF84
   57 FFFFFF84 FFFFFF80 FFFFFF80 FFFFFFC2 00 19 10 03 16 FFFFFF84 6C 04 0A FFFFFF84 47
   FFFFFF84 57 FFFFFF84 FFFFFF80 FFFFFF80 FFFFFFC2 00 19 10 03 16 FFFFFF84 6E 04 0A FFFFFF84
   6F FFFFFF84 57 FFFFFF84 FFFFFF80 FFFFFF80 FFFFFFC2 00 19 02 02 54 38 08 08 FFFFFF83
   3C FFFFFF84 57 FFFFFFC0 01 FFFFFF84 71 10 04 1B 00 FFFFFF84 5F 08 08 FFFFFF83
   3F FFFFFF84 57 FFFFFFC0 01 FFFFFF84 73 10 04 1B 00 FFFFFF84 61 08 08 FFFFFF83
   55 FFFFFF84 57 FFFFFFC0 01 FFFFFF84 75 10 04 1B 00 FFFFFF84 63 08 08 FFFFFF83
   6F FFFFFF84 57 FFFFFFC0 01 FFFFFF84 77 10 04 1B 00 FFFFFF84 65 08 08 FFFFFF84
   0D FFFFFF84 57 FFFFFFC0 01 FFFFFF84 79 10 04 1B 00 FFFFFF84 67 08 08 FFFFFF84
   2F FFFFFF84 57 FFFFFFC0 01 FFFFFF84 7B 10 04 1B 00 FFFFFF84 69 08 08 FFFFFF84
   55 FFFFFF84 57 FFFFFFC0 01 FFFFFF84 7D 10 04 1B 00 FFFFFF84 6B 08 08 FFFFFF84
   7F FFFFFF84 57 FFFFFFC0 01 FFFFFF85 00 01 04 6F 72 64 38 10 04 1B
   00 FFFFFF84 6D 08 08 FFFFFF85 02 FFFFFF81 0D FFFFFF84 01 FFFFFF85 03 01 06 54
   75 70 6C 65 39 15 14 FFFFFF85 04 FFFFFF85 0A FFFFFF85 0C FFFFFF85 0E FFFFFF85
   10 FFFFFF85 12 FFFFFF85 14 FFFFFF85 16 FFFFFF85 18 FFFFFF85 1A 16 14 FFFFFF85 05 FFFFFF85
   1C FFFFFF85 1E FFFFFF85 20 FFFFFF85 22 FFFFFF85 24 FFFFFF85 26 FFFFFF85 28 FFFFFF85 2A FFFFFF85
   2C 10 04 1B 00 FFFFFF85 06 10 15 1B FFFFFF85 07 FFFFFF85 09 FFFFFF85 0B
   FFFFFF85 0D FFFFFF85 0F FFFFFF85 11 FFFFFF85 13 FFFFFF85 15 FFFFFF85 17 FFFFFF85 19 09 03
   FFFFFF85 08 02 02 06 54 75 70 6C 65 39 10 03 16 FFFFFF85 0A
   04 0A FFFFFF83 37 FFFFFF85 01 FFFFFF84 FFFFFF80 FFFFFF80 FFFFFFC2 00 19 10 03 16 FFFFFF85
   0C 04 0A FFFFFF83 3A FFFFFF85 01 FFFFFF84 FFFFFF80 FFFFFF80 FFFFFFC2 00 19 10 03 16
   FFFFFF85 0E 04 0A FFFFFF83 4F FFFFFF85 01 FFFFFF84 FFFFFF80 FFFFFF80 FFFFFFC2 00 19 10 03
   16 FFFFFF85 10 04 0A FFFFFF83 67 FFFFFF85 01 FFFFFF84 FFFFFF80 FFFFFF80 FFFFFFC2 00 19 10
   03 16 FFFFFF85 12 04 0A FFFFFF84 03 FFFFFF85 01 FFFFFF84 FFFFFF80 FFFFFF80 FFFFFFC2 00 19
   10 03 16 FFFFFF85 14 04 0A FFFFFF84 23 FFFFFF85 01 FFFFFF84 FFFFFF80 FFFFFF80 FFFFFFC2 00
   19 10 03 16 FFFFFF85 16 04 0A FFFFFF84 47 FFFFFF85 01 FFFFFF84 FFFFFF80 FFFFFF80 FFFFFFC2
   00 19 10 03 16 FFFFFF85 18 04 0A FFFFFF84 6F FFFFFF85 01 FFFFFF84 FFFFFF80 FFFFFF80
   FFFFFFC2 00 19 10 03 16 FFFFFF85 1A 04 0A FFFFFF85 1B FFFFFF85 01 FFFFFF84 FFFFFF80
   FFFFFF80 FFFFFFC2 00 19 02 02 54 39 08 08 FFFFFF83 3C FFFFFF85 01 FFFFFFC0 01
   FFFFFF85 1D 10 04 1B 00 FFFFFF85 09 08 08 FFFFFF83 3F FFFFFF85 01 FFFFFFC0 01
   FFFFFF85 1F 10 04 1B 00 FFFFFF85 0B 08 08 FFFFFF83 55 FFFFFF85 01 FFFFFFC0 01
   FFFFFF85 21 10 04 1B 00 FFFFFF85 0D 08 08 FFFFFF83 6F FFFFFF85 01 FFFFFFC0 01
   FFFFFF85 23 10 04 1B 00 FFFFFF85 0F 08 08 FFFFFF84 0D FFFFFF85 01 FFFFFFC0 01
   FFFFFF85 25 10 04 1B 00 FFFFFF85 11 08 08 FFFFFF84 2F FFFFFF85 01 FFFFFFC0 01
   FFFFFF85 27 10 04 1B 00 FFFFFF85 13 08 08 FFFFFF84 55 FFFFFF85 01 FFFFFFC0 01
   FFFFFF85 29 10 04 1B 00 FFFFFF85 15 08 08 FFFFFF84 7F FFFFFF85 01 FFFFFFC0 01
   FFFFFF85 2B 10 04 1B 00 FFFFFF85 17 08 08 FFFFFF85 2D FFFFFF85 01 FFFFFFC0 01
   FFFFFF85 2E 01 04 6F 72 64 39 10 04 1B 00 FFFFFF85 19 
  InnerClass: 
   public #31= #28 of #30; //Ops=class scala/Ordering$Ops of class scala/Ordering
   public final #34= #33 of #30; //$anon$5=class scala/Ordering$$anon$5 of class scala/Ordering
   public final #37= #36 of #30; //$anon$9=class scala/Ordering$$anon$9 of class scala/Ordering
   public final #40= #39 of #30; //$anon$7=class scala/Ordering$$anon$7 of class scala/Ordering
   public final #43= #42 of #30; //$anon$3=class scala/Ordering$$anon$3 of class scala/Ordering
   public final #46= #45 of #30; //$anon$6=class scala/Ordering$$anon$6 of class scala/Ordering
   public final #49= #48 of #30; //$anon$2=class scala/Ordering$$anon$2 of class scala/Ordering
   public final #52= #51 of #30; //$anon$8=class scala/Ordering$$anon$8 of class scala/Ordering
   public final #55= #54 of #30; //$anon$4=class scala/Ordering$$anon$4 of class scala/Ordering
   public final #58= #57 of #30; //$anon$11=class scala/Ordering$$anon$11 of class scala/Ordering
   public final #61= #60 of #30; //$anon$10=class scala/Ordering$$anon$10 of class scala/Ordering
   public final #64= #63 of #30; //$anon$12=class scala/Ordering$$anon$12 of class scala/Ordering
   public abstract #67= #66 of #30; //IntOrdering=class scala/Ordering$IntOrdering of class scala/Ordering
   public abstract #70= #69 of #30; //CharOrdering=class scala/Ordering$CharOrdering of class scala/Ordering
   public abstract #73= #72 of #30; //UnitOrdering=class scala/Ordering$UnitOrdering of class scala/Ordering
   public abstract #76= #75 of #30; //LongOrdering=class scala/Ordering$LongOrdering of class scala/Ordering
   public abstract #79= #78 of #30; //ByteOrdering=class scala/Ordering$ByteOrdering of class scala/Ordering
   public abstract #82= #81 of #30; //FloatOrdering=class scala/Ordering$FloatOrdering of class scala/Ordering
   public abstract #85= #84 of #30; //ShortOrdering=class scala/Ordering$ShortOrdering of class scala/Ordering
   public abstract #88= #87 of #30; //StringOrdering=class scala/Ordering$StringOrdering of class scala/Ordering
   public abstract #91= #90 of #30; //BigIntOrdering=class scala/Ordering$BigIntOrdering of class scala/Ordering
   public abstract #94= #93 of #30; //DoubleOrdering=class scala/Ordering$DoubleOrdering of class scala/Ordering
   public abstract #97= #96 of #30; //BooleanOrdering=class scala/Ordering$BooleanOrdering of class scala/Ordering
   public abstract #100= #99 of #30; //IntOrdering$class=class scala/Ordering$IntOrdering$class of class scala/Ordering
   public abstract #103= #102 of #30; //CharOrdering$class=class scala/Ordering$CharOrdering$class of class scala/Ordering
   public abstract #106= #105 of #30; //UnitOrdering$class=class scala/Ordering$UnitOrdering$class of class scala/Ordering
   public abstract #109= #108 of #30; //ByteOrdering$class=class scala/Ordering$ByteOrdering$class of class scala/Ordering
   public abstract #112= #111 of #30; //BigDecimalOrdering=class scala/Ordering$BigDecimalOrdering of class scala/Ordering
   public abstract #115= #114 of #30; //LongOrdering$class=class scala/Ordering$LongOrdering$class of class scala/Ordering
   public abstract #118= #117 of #30; //FloatOrdering$class=class scala/Ordering$FloatOrdering$class of class scala/Ordering
   public abstract #121= #120 of #30; //ShortOrdering$class=class scala/Ordering$ShortOrdering$class of class scala/Ordering
   public abstract #124= #123 of #30; //StringOrdering$class=class scala/Ordering$StringOrdering$class of class scala/Ordering
   public abstract #127= #126 of #30; //BigIntOrdering$class=class scala/Ordering$BigIntOrdering$class of class scala/Ordering
   public abstract #130= #129 of #30; //DoubleOrdering$class=class scala/Ordering$DoubleOrdering$class of class scala/Ordering
   public abstract #133= #132 of #30; //BooleanOrdering$class=class scala/Ordering$BooleanOrdering$class of class scala/Ordering
   public abstract #136= #135 of #30; //BigDecimalOrdering$class=class scala/Ordering$BigDecimalOrdering$class of class scala/Ordering
  minor version: 0
  major version: 49
  Constant pool:
const #1 = Asciz	SourceFile;
const #2 = Asciz	Ordering.scala;
const #3 = Asciz	mkOrderingOps;
const #4 = Asciz	(Ljava/lang/Object;)Lscala/Ordering$Ops;;
const #5 = Asciz	(TT;)Lscala/Ordering<TT;>.Ops;;
const #6 = Asciz	Signature;
const #7 = Asciz	reverse;
const #8 = Asciz	()Lscala/Ordering;;
const #9 = Asciz	()Lscala/Ordering<TT;>;;
const #10 = Asciz	min;
const #11 = Asciz	(Ljava/lang/Object;Ljava/lang/Object;)Ljava/lang/Object;;
const #12 = Asciz	(TT;TT;)TT;;
const #13 = Asciz	max;
const #14 = Asciz	equiv;
const #15 = Asciz	(Ljava/lang/Object;Ljava/lang/Object;)Z;
const #16 = Asciz	(TT;TT;)Z;
const #17 = Asciz	gt;
const #18 = Asciz	lt;
const #19 = Asciz	gteq;
const #20 = Asciz	lteq;
const #21 = Asciz	compare;
const #22 = Asciz	(Ljava/lang/Object;Ljava/lang/Object;)I;
const #23 = Asciz	(TT;TT;)I;
const #24 = Asciz	<T:Ljava/lang/Object;>Ljava/lang/Object;Ljava/util/Comparator<TT;>;Lscala/PartialOrdering<TT;>;Lscala/ScalaObject;;
const #25 = Asciz	ScalaSig;
const #26 = Asciz	InnerClasses;
const #27 = Asciz	scala/Ordering$Ops;
const #28 = class	#27;	//  scala/Ordering$Ops
const #29 = Asciz	scala/Ordering;
const #30 = class	#29;	//  scala/Ordering
const #31 = Asciz	Ops;
const #32 = Asciz	scala/Ordering$$anon$5;
const #33 = class	#32;	//  scala/Ordering$$anon$5
const #34 = Asciz	$anon$5;
const #35 = Asciz	scala/Ordering$$anon$9;
const #36 = class	#35;	//  scala/Ordering$$anon$9
const #37 = Asciz	$anon$9;
const #38 = Asciz	scala/Ordering$$anon$7;
const #39 = class	#38;	//  scala/Ordering$$anon$7
const #40 = Asciz	$anon$7;
const #41 = Asciz	scala/Ordering$$anon$3;
const #42 = class	#41;	//  scala/Ordering$$anon$3
const #43 = Asciz	$anon$3;
const #44 = Asciz	scala/Ordering$$anon$6;
const #45 = class	#44;	//  scala/Ordering$$anon$6
const #46 = Asciz	$anon$6;
const #47 = Asciz	scala/Ordering$$anon$2;
const #48 = class	#47;	//  scala/Ordering$$anon$2
const #49 = Asciz	$anon$2;
const #50 = Asciz	scala/Ordering$$anon$8;
const #51 = class	#50;	//  scala/Ordering$$anon$8
const #52 = Asciz	$anon$8;
const #53 = Asciz	scala/Ordering$$anon$4;
const #54 = class	#53;	//  scala/Ordering$$anon$4
const #55 = Asciz	$anon$4;
const #56 = Asciz	scala/Ordering$$anon$11;
const #57 = class	#56;	//  scala/Ordering$$anon$11
const #58 = Asciz	$anon$11;
const #59 = Asciz	scala/Ordering$$anon$10;
const #60 = class	#59;	//  scala/Ordering$$anon$10
const #61 = Asciz	$anon$10;
const #62 = Asciz	scala/Ordering$$anon$12;
const #63 = class	#62;	//  scala/Ordering$$anon$12
const #64 = Asciz	$anon$12;
const #65 = Asciz	scala/Ordering$IntOrdering;
const #66 = class	#65;	//  scala/Ordering$IntOrdering
const #67 = Asciz	IntOrdering;
const #68 = Asciz	scala/Ordering$CharOrdering;
const #69 = class	#68;	//  scala/Ordering$CharOrdering
const #70 = Asciz	CharOrdering;
const #71 = Asciz	scala/Ordering$UnitOrdering;
const #72 = class	#71;	//  scala/Ordering$UnitOrdering
const #73 = Asciz	UnitOrdering;
const #74 = Asciz	scala/Ordering$LongOrdering;
const #75 = class	#74;	//  scala/Ordering$LongOrdering
const #76 = Asciz	LongOrdering;
const #77 = Asciz	scala/Ordering$ByteOrdering;
const #78 = class	#77;	//  scala/Ordering$ByteOrdering
const #79 = Asciz	ByteOrdering;
const #80 = Asciz	scala/Ordering$FloatOrdering;
const #81 = class	#80;	//  scala/Ordering$FloatOrdering
const #82 = Asciz	FloatOrdering;
const #83 = Asciz	scala/Ordering$ShortOrdering;
const #84 = class	#83;	//  scala/Ordering$ShortOrdering
const #85 = Asciz	ShortOrdering;
const #86 = Asciz	scala/Ordering$StringOrdering;
const #87 = class	#86;	//  scala/Ordering$StringOrdering
const #88 = Asciz	StringOrdering;
const #89 = Asciz	scala/Ordering$BigIntOrdering;
const #90 = class	#89;	//  scala/Ordering$BigIntOrdering
const #91 = Asciz	BigIntOrdering;
const #92 = Asciz	scala/Ordering$DoubleOrdering;
const #93 = class	#92;	//  scala/Ordering$DoubleOrdering
const #94 = Asciz	DoubleOrdering;
const #95 = Asciz	scala/Ordering$BooleanOrdering;
const #96 = class	#95;	//  scala/Ordering$BooleanOrdering
const #97 = Asciz	BooleanOrdering;
const #98 = Asciz	scala/Ordering$IntOrdering$class;
const #99 = class	#98;	//  scala/Ordering$IntOrdering$class
const #100 = Asciz	IntOrdering$class;
const #101 = Asciz	scala/Ordering$CharOrdering$class;
const #102 = class	#101;	//  scala/Ordering$CharOrdering$class
const #103 = Asciz	CharOrdering$class;
const #104 = Asciz	scala/Ordering$UnitOrdering$class;
const #105 = class	#104;	//  scala/Ordering$UnitOrdering$class
const #106 = Asciz	UnitOrdering$class;
const #107 = Asciz	scala/Ordering$ByteOrdering$class;
const #108 = class	#107;	//  scala/Ordering$ByteOrdering$class
const #109 = Asciz	ByteOrdering$class;
const #110 = Asciz	scala/Ordering$BigDecimalOrdering;
const #111 = class	#110;	//  scala/Ordering$BigDecimalOrdering
const #112 = Asciz	BigDecimalOrdering;
const #113 = Asciz	scala/Ordering$LongOrdering$class;
const #114 = class	#113;	//  scala/Ordering$LongOrdering$class
const #115 = Asciz	LongOrdering$class;
const #116 = Asciz	scala/Ordering$FloatOrdering$class;
const #117 = class	#116;	//  scala/Ordering$FloatOrdering$class
const #118 = Asciz	FloatOrdering$class;
const #119 = Asciz	scala/Ordering$ShortOrdering$class;
const #120 = class	#119;	//  scala/Ordering$ShortOrdering$class
const #121 = Asciz	ShortOrdering$class;
const #122 = Asciz	scala/Ordering$StringOrdering$class;
const #123 = class	#122;	//  scala/Ordering$StringOrdering$class
const #124 = Asciz	StringOrdering$class;
const #125 = Asciz	scala/Ordering$BigIntOrdering$class;
const #126 = class	#125;	//  scala/Ordering$BigIntOrdering$class
const #127 = Asciz	BigIntOrdering$class;
const #128 = Asciz	scala/Ordering$DoubleOrdering$class;
const #129 = class	#128;	//  scala/Ordering$DoubleOrdering$class
const #130 = Asciz	DoubleOrdering$class;
const #131 = Asciz	scala/Ordering$BooleanOrdering$class;
const #132 = class	#131;	//  scala/Ordering$BooleanOrdering$class
const #133 = Asciz	BooleanOrdering$class;
const #134 = Asciz	scala/Ordering$BigDecimalOrdering$class;
const #135 = class	#134;	//  scala/Ordering$BigDecimalOrdering$class
const #136 = Asciz	BigDecimalOrdering$class;
const #137 = Asciz	java/lang/Object;
const #138 = class	#137;	//  java/lang/Object
const #139 = Asciz	java/util/Comparator;
const #140 = class	#139;	//  java/util/Comparator
const #141 = Asciz	scala/PartialOrdering;
const #142 = class	#141;	//  scala/PartialOrdering
const #143 = Asciz	scala/ScalaObject;
const #144 = class	#143;	//  scala/ScalaObject

{
public abstract scala.Ordering$Ops mkOrderingOps(java.lang.Object);
  Signature: length = 0x2
   00 05 

public abstract scala.Ordering reverse();
  Signature: length = 0x2
   00 09 

public abstract java.lang.Object min(java.lang.Object, java.lang.Object);
  Signature: length = 0x2
   00 0C 

public abstract java.lang.Object max(java.lang.Object, java.lang.Object);
  Signature: length = 0x2
   00 0C 

public abstract boolean equiv(java.lang.Object, java.lang.Object);
  Signature: length = 0x2
   00 10 

public abstract boolean gt(java.lang.Object, java.lang.Object);
  Signature: length = 0x2
   00 10 

public abstract boolean lt(java.lang.Object, java.lang.Object);
  Signature: length = 0x2
   00 10 

public abstract boolean gteq(java.lang.Object, java.lang.Object);
  Signature: length = 0x2
   00 10 

public abstract boolean lteq(java.lang.Object, java.lang.Object);
  Signature: length = 0x2
   00 10 

public abstract int compare(java.lang.Object, java.lang.Object);
  Signature: length = 0x2
   00 17 

}

