Compiled from "package.scala"
public final class scala.package extends java.lang.Object
  SourceFile: "package.scala"
  ScalaSig: length = 0x564
   05 00 FFFFFF81 47 07 05 01 02 FFFFFF88 02 05 01 07 70 61 63
   6B 61 67 65 0A 01 03 01 05 73 63 61 6C 61 03 00
   10 02 06 07 0D 01 02 06 08 08 02 FFFFFF84 FFFFFF80 FFFFFF80 FFFFFF88 02
   09 02 07 70 61 63 6B 61 67 65 13 03 07 0A 12 10
   02 0B 10 0D 01 0C 0A 02 0D 0E 01 04 6C 61 6E 67
   0A 01 0F 01 04 6A 61 76 61 09 02 11 0C 02 06 4F
   62 6A 65 63 74 10 02 06 13 09 02 14 02 02 0B 53
   63 61 6C 61 4F 62 6A 65 63 74 08 05 16 07 FFFFFF84 00
   17 01 06 3C 69 6E 69 74 3E 14 01 05 05 04 19 07
   00 1A 02 08 49 74 65 72 61 62 6C 65 15 02 1B 22
   10 03 1C 1F 20 0D 01 1D 0A 02 1E 02 01 0A 63 6F
   6C 6C 65 63 74 69 6F 6E 09 02 19 1D 10 02 21 22
   0C 00 04 08 23 18 FFFFFF84 FFFFFF80 FFFFFF84 FFFFFFC2 00 24 02 01 41 11
   02 25 28 10 02 06 26 09 02 27 02 02 07 4E 6F 74
   68 69 6E 67 10 02 06 29 09 02 2A 02 02 03 41 6E
   79 08 07 2C 07 FFFFFFC2 FFFFFF80 FFFFFF84 00 2D 01 08 49 74 65 72
   61 62 6C 65 15 01 2E 0E 02 2F 36 0E 02 30 35 0E
   02 31 34 0D 01 32 0A 02 33 04 01 06 3C 72 6F 6F
   74 3E 09 01 03 09 02 1E 02 09 02 2C 1D 08 06 38
   07 FFFFFFA0 FFFFFF80 04 2E 01 09 49 74 65 72 61 62 6C 65 20
   05 04 3A 07 00 3B 02 0A 43 6F 6C 6C 65 63 74 69
   6F 6E 15 02 3C 3F 10 03 3D 18 3E 0D 01 07 10 02
   21 3F 04 08 23 39 FFFFFF84 FFFFFF80 FFFFFF84 FFFFFFC2 00 24 28 03 39 41
   44 10 02 06 42 09 02 43 02 02 0A 64 65 70 72 65
   63 61 74 65 64 21 01 45 01 14 75 73 65 20 49 74
   65 72 61 62 6C 65 20 69 6E 73 74 65 61 64 08 07
   47 07 FFFFFFC2 FFFFFF80 FFFFFF84 00 2D 01 0A 43 6F 6C 6C 65 63 74
   69 6F 6E 28 03 46 41 44 08 06 4A 07 FFFFFFA0 FFFFFF80 04 2E
   01 0B 43 6F 6C 6C 65 63 74 69 6F 6E 20 28 03 49
   41 44 05 04 4D 07 00 4E 02 03 53 65 71 15 02 4F
   53 10 03 1C 50 52 09 02 51 1D 02 08 53 65 71 75
   65 6E 63 65 10 02 21 53 04 08 23 4C FFFFFF84 FFFFFF80 FFFFFF84 FFFFFFC2
   00 24 08 07 55 07 FFFFFFC2 FFFFFF80 FFFFFF84 00 56 01 03 53 65 71
   15 01 57 0E 02 2F 58 09 02 59 1D 01 08 53 65 71
   75 65 6E 63 65 08 06 5B 07 FFFFFFA0 FFFFFF80 04 57 01 04 53
   65 71 20 05 04 5D 07 00 5E 02 0F 52 61 6E 64 6F
   6D 41 63 63 65 73 73 53 65 71 15 02 5F 63 10 03
   1C 60 62 09 02 61 1D 02 06 56 65 63 74 6F 72 10
   02 21 63 04 08 23 5C FFFFFF84 FFFFFF80 FFFFFF84 FFFFFFC2 00 24 08 07 65
   07 FFFFFFC2 FFFFFF80 FFFFFF84 00 66 01 0F 52 61 6E 64 6F 6D 41 63
   63 65 73 73 53 65 71 15 01 67 0E 02 2F 68 09 02
   69 1D 01 06 56 65 63 74 6F 72 08 06 6B 07 FFFFFFA0 FFFFFF80
   04 67 01 10 52 61 6E 64 6F 6D 41 63 63 65 73 73
   53 65 71 20 05 04 6D 07 00 6E 02 08 49 74 65 72
   61 74 6F 72 15 02 6F 72 10 03 1C 70 71 09 02 6D
   1D 10 02 21 72 04 08 23 6C FFFFFF84 FFFFFF80 FFFFFF84 FFFFFFC2 00 24 08
   07 74 07 FFFFFFC2 FFFFFF80 FFFFFF84 00 75 01 08 49 74 65 72 61 74
   6F 72 15 01 76 0E 02 2F 77 09 02 74 1D 08 06 79
   07 FFFFFFA0 FFFFFF80 04 76 01 09 49 74 65 72 61 74 6F 72 20
   05 04 7B 07 00 7C 02 10 42 75 66 66 65 72 65 64
   49 74 65 72 61 74 6F 72 15 03 7D FFFFFF81 00 10 03 1C
   7E 7F 09 02 7B 1D 10 03 21 FFFFFF81 00 04 08 23 7A FFFFFF84
   FFFFFF80 FFFFFF84 FFFFFFC2 00 24 05 06 FFFFFF81 02 07 00 FFFFFF81 03 02 04 4C
   69 73 74 15 04 FFFFFF81 04 FFFFFF81 0A 10 06 FFFFFF81 05 FFFFFF81 08 FFFFFF81
   09 0D 02 FFFFFF81 06 0A 03 FFFFFF81 07 1D 01 09 69 6D 6D 75
   74 61 62 6C 65 09 04 FFFFFF81 02 FFFFFF81 06 10 03 21 FFFFFF81 0A
   04 09 23 FFFFFF81 01 FFFFFF84 FFFFFF80 FFFFFF84 FFFFFFC2 00 24 08 09 FFFFFF81 0C 07
   FFFFFFC2 FFFFFF80 FFFFFF84 00 FFFFFF81 0D 01 04 4C 69 73 74 15 02 FFFFFF81 0E
   0E 04 FFFFFF81 0F FFFFFF81 11 0E 03 2F FFFFFF81 10 09 03 FFFFFF81 07 1D
   09 04 FFFFFF81 0C FFFFFF81 06 08 08 FFFFFF81 13 07 FFFFFFA0 FFFFFF80 04 FFFFFF81 0E
   01 05 4C 69 73 74 20 08 09 FFFFFF81 15 07 FFFFFFC2 FFFFFF80 FFFFFF84 00
   FFFFFF81 16 01 03 4E 69 6C 15 02 FFFFFF81 17 0E 04 FFFFFF81 0F FFFFFF81
   18 09 04 FFFFFF81 15 FFFFFF81 06 08 08 FFFFFF81 1A 07 FFFFFFA0 FFFFFF80 04 FFFFFF81
   17 01 04 4E 69 6C 20 05 06 FFFFFF81 1C 07 00 FFFFFF81 1D 02
   0C 24 63 6F 6C 6F 6E 24 63 6F 6C 6F 6E 15 04 FFFFFF81
   1E FFFFFF81 21 10 06 FFFFFF81 05 FFFFFF81 1F FFFFFF81 20 09 04 FFFFFF81 1C FFFFFF81
   06 10 03 21 FFFFFF81 21 04 09 23 FFFFFF81 1B FFFFFF84 FFFFFF80 FFFFFF80 FFFFFFC2 00
   24 08 09 FFFFFF81 23 07 FFFFFFC2 FFFFFF80 FFFFFF84 00 FFFFFF81 24 01 0C 24 63
   6F 6C 6F 6E 24 63 6F 6C 6F 6E 15 02 FFFFFF81 25 0E 04
   FFFFFF81 0F FFFFFF81 26 09 04 FFFFFF81 23 FFFFFF81 06 08 08 FFFFFF81 28 07 FFFFFFA0
   FFFFFF80 04 FFFFFF81 25 01 0D 24 63 6F 6C 6F 6E 24 63 6F 6C
   6F 6E 20 05 06 FFFFFF81 2A 07 00 FFFFFF81 2B 02 06 53 74 72
   65 61 6D 15 04 FFFFFF81 2C FFFFFF81 2F 10 06 FFFFFF81 05 FFFFFF81 2D FFFFFF81
   2E 09 04 FFFFFF81 2A FFFFFF81 06 10 03 21 FFFFFF81 2F 04 09 23 FFFFFF81
   29 FFFFFF84 FFFFFF80 FFFFFF84 FFFFFFC2 00 24 08 09 FFFFFF81 31 07 FFFFFFC2 FFFFFF80 FFFFFF84 00
   FFFFFF81 32 01 06 53 74 72 65 61 6D 15 02 FFFFFF81 33 0E 04
   FFFFFF81 0F FFFFFF81 34 09 04 FFFFFF81 31 FFFFFF81 06 08 08 FFFFFF81 36 07 FFFFFFA0
   FFFFFF80 04 FFFFFF81 33 01 07 53 74 72 65 61 6D 20 05 0A FFFFFF81
   38 07 FFFFFF84 FFFFFF80 FFFFFF80 FFFFFF80 00 FFFFFF81 39 02 0D 53 74 72 69 6E
   67 42 75 69 6C 64 65 72 10 04 FFFFFF81 3A FFFFFF81 3D 0D 02
   FFFFFF81 3B 0A 03 FFFFFF81 3C 1D 01 07 6D 75 74 61 62 6C 65
   09 04 FFFFFF81 38 FFFFFF81 3B 08 09 FFFFFF81 3F 07 FFFFFFC2 FFFFFF80 FFFFFF84 00 FFFFFF81
   40 01 0D 53 74 72 69 6E 67 42 75 69 6C 64 65 72
   15 02 FFFFFF81 41 0E 04 FFFFFF81 42 FFFFFF81 44 0E 03 2F FFFFFF81 43 09
   03 FFFFFF81 3C 1D 09 04 FFFFFF81 3F FFFFFF81 3B 08 08 FFFFFF81 46 07 FFFFFFA0
   FFFFFF80 04 FFFFFF81 41 01 0E 53 74 72 69 6E 67 42 75 69 6C
   64 65 72 20 
  minor version: 0
  major version: 49
  Constant pool:
const #1 = Asciz	SourceFile;
const #2 = Asciz	package.scala;
const #3 = Asciz	StringBuilder;
const #4 = Asciz	()Lscala/collection/mutable/StringBuilder$;;
const #5 = Asciz	Code;
const #6 = Asciz	scala/package$;
const #7 = class	#6;	//  scala/package$
const #8 = Asciz	MODULE$;
const #9 = Asciz	Lscala/package$;;
const #10 = NameAndType	#8:#9;//  MODULE$:Lscala/package$;
const #11 = Field	#7.#10;	//  scala/package$.MODULE$:Lscala/package$;
const #12 = NameAndType	#3:#4;//  StringBuilder:()Lscala/collection/mutable/StringBuilder$;
const #13 = Method	#7.#12;	//  scala/package$.StringBuilder:()Lscala/collection/mutable/StringBuilder$;
const #14 = Asciz	Stream;
const #15 = Asciz	()Lscala/collection/immutable/Stream$;;
const #16 = NameAndType	#14:#15;//  Stream:()Lscala/collection/immutable/Stream$;
const #17 = Method	#7.#16;	//  scala/package$.Stream:()Lscala/collection/immutable/Stream$;
const #18 = Asciz	$colon$colon;
const #19 = Asciz	()Lscala/collection/immutable/$colon$colon$;;
const #20 = NameAndType	#18:#19;//  $colon$colon:()Lscala/collection/immutable/$colon$colon$;
const #21 = Method	#7.#20;	//  scala/package$.$colon$colon:()Lscala/collection/immutable/$colon$colon$;
const #22 = Asciz	Nil;
const #23 = Asciz	()Lscala/collection/immutable/Nil$;;
const #24 = NameAndType	#22:#23;//  Nil:()Lscala/collection/immutable/Nil$;
const #25 = Method	#7.#24;	//  scala/package$.Nil:()Lscala/collection/immutable/Nil$;
const #26 = Asciz	List;
const #27 = Asciz	()Lscala/collection/immutable/List$;;
const #28 = NameAndType	#26:#27;//  List:()Lscala/collection/immutable/List$;
const #29 = Method	#7.#28;	//  scala/package$.List:()Lscala/collection/immutable/List$;
const #30 = Asciz	Iterator;
const #31 = Asciz	()Lscala/collection/Iterator$;;
const #32 = NameAndType	#30:#31;//  Iterator:()Lscala/collection/Iterator$;
const #33 = Method	#7.#32;	//  scala/package$.Iterator:()Lscala/collection/Iterator$;
const #34 = Asciz	RandomAccessSeq;
const #35 = Asciz	()Lscala/collection/Vector$;;
const #36 = NameAndType	#34:#35;//  RandomAccessSeq:()Lscala/collection/Vector$;
const #37 = Method	#7.#36;	//  scala/package$.RandomAccessSeq:()Lscala/collection/Vector$;
const #38 = Asciz	Seq;
const #39 = Asciz	()Lscala/collection/Sequence$;;
const #40 = NameAndType	#38:#39;//  Seq:()Lscala/collection/Sequence$;
const #41 = Method	#7.#40;	//  scala/package$.Seq:()Lscala/collection/Sequence$;
const #42 = Asciz	Collection;
const #43 = Asciz	()Lscala/collection/Iterable$;;
const #44 = NameAndType	#42:#43;//  Collection:()Lscala/collection/Iterable$;
const #45 = Method	#7.#44;	//  scala/package$.Collection:()Lscala/collection/Iterable$;
const #46 = Asciz	Iterable;
const #47 = NameAndType	#46:#43;//  Iterable:()Lscala/collection/Iterable$;
const #48 = Method	#7.#47;	//  scala/package$.Iterable:()Lscala/collection/Iterable$;
const #49 = Asciz	ScalaSig;
const #50 = Asciz	scala/package;
const #51 = class	#50;	//  scala/package
const #52 = Asciz	java/lang/Object;
const #53 = class	#52;	//  java/lang/Object

{
public static final scala.collection.mutable.StringBuilder$ StringBuilder();
  Code:
   Stack=1, Locals=0, Args_size=0
   0:	getstatic	#11; //Field scala/package$.MODULE$:Lscala/package$;
   3:	invokevirtual	#13; //Method scala/package$.StringBuilder:()Lscala/collection/mutable/StringBuilder$;
   6:	areturn

public static final scala.collection.immutable.Stream$ Stream();
  Code:
   Stack=1, Locals=0, Args_size=0
   0:	getstatic	#11; //Field scala/package$.MODULE$:Lscala/package$;
   3:	invokevirtual	#17; //Method scala/package$.Stream:()Lscala/collection/immutable/Stream$;
   6:	areturn

public static final scala.collection.immutable.$colon$colon$ $colon$colon();
  Code:
   Stack=1, Locals=0, Args_size=0
   0:	getstatic	#11; //Field scala/package$.MODULE$:Lscala/package$;
   3:	invokevirtual	#21; //Method scala/package$.$colon$colon:()Lscala/collection/immutable/$colon$colon$;
   6:	areturn

public static final scala.collection.immutable.Nil$ Nil();
  Code:
   Stack=1, Locals=0, Args_size=0
   0:	getstatic	#11; //Field scala/package$.MODULE$:Lscala/package$;
   3:	invokevirtual	#25; //Method scala/package$.Nil:()Lscala/collection/immutable/Nil$;
   6:	areturn

public static final scala.collection.immutable.List$ List();
  Code:
   Stack=1, Locals=0, Args_size=0
   0:	getstatic	#11; //Field scala/package$.MODULE$:Lscala/package$;
   3:	invokevirtual	#29; //Method scala/package$.List:()Lscala/collection/immutable/List$;
   6:	areturn

public static final scala.collection.Iterator$ Iterator();
  Code:
   Stack=1, Locals=0, Args_size=0
   0:	getstatic	#11; //Field scala/package$.MODULE$:Lscala/package$;
   3:	invokevirtual	#33; //Method scala/package$.Iterator:()Lscala/collection/Iterator$;
   6:	areturn

public static final scala.collection.Vector$ RandomAccessSeq();
  Code:
   Stack=1, Locals=0, Args_size=0
   0:	getstatic	#11; //Field scala/package$.MODULE$:Lscala/package$;
   3:	invokevirtual	#37; //Method scala/package$.RandomAccessSeq:()Lscala/collection/Vector$;
   6:	areturn

public static final scala.collection.Sequence$ Seq();
  Code:
   Stack=1, Locals=0, Args_size=0
   0:	getstatic	#11; //Field scala/package$.MODULE$:Lscala/package$;
   3:	invokevirtual	#41; //Method scala/package$.Seq:()Lscala/collection/Sequence$;
   6:	areturn

public static final scala.collection.Iterable$ Collection();
  Code:
   Stack=1, Locals=0, Args_size=0
   0:	getstatic	#11; //Field scala/package$.MODULE$:Lscala/package$;
   3:	invokevirtual	#45; //Method scala/package$.Collection:()Lscala/collection/Iterable$;
   6:	areturn

public static final scala.collection.Iterable$ Iterable();
  Code:
   Stack=1, Locals=0, Args_size=0
   0:	getstatic	#11; //Field scala/package$.MODULE$:Lscala/package$;
   3:	invokevirtual	#48; //Method scala/package$.Iterable:()Lscala/collection/Iterable$;
   6:	areturn

}

