Compiled from "Predef.scala"
public final class scala.Predef extends java.lang.Object
  SourceFile: "Predef.scala"
  ScalaSig: length = 0x2107
   05 00 FFFFFF87 7E 07 05 01 02 FFFFFF88 02 05 01 06 50 72 65
   64 65 66 0A 01 03 01 05 73 63 61 6C 61 03 00 10
   02 06 07 0D 01 02 06 08 08 02 FFFFFF84 FFFFFF80 FFFFFF80 FFFFFF88 02 09
   02 06 50 72 65 64 65 66 13 03 07 0A 12 10 02 0B
   10 0D 01 0C 0A 02 0D 0E 01 04 6C 61 6E 67 0A 01
   0F 01 04 6A 61 76 61 09 02 11 0C 02 06 4F 62 6A
   65 63 74 10 02 06 13 09 02 14 02 02 0B 53 63 61
   6C 61 4F 62 6A 65 63 74 08 05 16 07 FFFFFF84 00 17 01
   06 3C 69 6E 69 74 3E 14 01 05 08 05 19 07 FFFFFF84 00
   1A 01 07 63 6C 61 73 73 4F 66 15 02 1B 2E 10 03
   1C 1D 2D 0D 01 07 05 04 1E 07 00 1F 02 05 43 6C
   61 73 73 15 02 20 24 10 03 0B 21 22 09 02 1E 0C
   10 02 23 24 0C 00 04 08 25 1D FFFFFF84 FFFFFF80 FFFFFF80 FFFFFFC2 00 26
   02 01 54 11 02 27 2A 10 02 06 28 09 02 29 02 02
   07 4E 6F 74 68 69 6E 67 10 02 06 2B 09 02 2C 02
   02 03 41 6E 79 10 02 23 2E 04 08 25 18 FFFFFF84 FFFFFF80 FFFFFF80
   FFFFFFC2 00 26 05 08 30 07 FFFFFF84 FFFFFF80 FFFFFF80 FFFFFF80 00 31 02 04 62
   79 74 65 10 02 06 32 09 02 33 02 02 04 42 79 74
   65 28 03 2F 35 38 10 02 06 36 09 02 37 02 02 0A
   64 65 70 72 65 63 61 74 65 64 21 01 39 01 27 6C
   6F 77 65 72 2D 63 61 73 65 20 74 79 70 65 20 61
   6C 69 61 73 65 73 20 77 69 6C 6C 20 62 65 20 72
   65 6D 6F 76 65 64 05 08 3B 07 FFFFFF84 FFFFFF80 FFFFFF80 FFFFFF80 00 3C
   02 05 73 68 6F 72 74 10 02 06 3D 09 02 3E 02 02
   05 53 68 6F 72 74 28 03 3A 35 38 05 08 41 07 FFFFFF84
   FFFFFF80 FFFFFF80 FFFFFF80 00 42 02 04 63 68 61 72 10 02 06 43 09
   02 44 02 02 04 43 68 61 72 28 03 40 35 38 05 08
   47 07 FFFFFF84 FFFFFF80 FFFFFF80 FFFFFF80 00 48 02 03 69 6E 74 10 02 06
   49 09 02 4A 02 02 03 49 6E 74 28 03 46 35 38 05
   08 4D 07 FFFFFF84 FFFFFF80 FFFFFF80 FFFFFF80 00 4E 02 04 6C 6F 6E 67 10
   02 06 4F 09 02 50 02 02 04 4C 6F 6E 67 28 03 4C
   35 38 05 08 53 07 FFFFFF84 FFFFFF80 FFFFFF80 FFFFFF80 00 54 02 05 66 6C
   6F 61 74 10 02 06 55 09 02 56 02 02 05 46 6C 6F
   61 74 28 03 52 35 38 05 08 59 07 FFFFFF84 FFFFFF80 FFFFFF80 FFFFFF80 00
   5A 02 06 64 6F 75 62 6C 65 10 02 06 5B 09 02 5C
   02 02 06 44 6F 75 62 6C 65 28 03 58 35 38 05 08
   5F 07 FFFFFF84 FFFFFF80 FFFFFF80 FFFFFF80 00 60 02 07 62 6F 6F 6C 65 61
   6E 10 02 06 61 09 02 62 02 02 07 42 6F 6F 6C 65
   61 6E 28 03 5E 35 38 05 08 65 07 FFFFFF84 FFFFFF80 FFFFFF80 FFFFFF80 00
   66 02 04 75 6E 69 74 10 02 06 67 09 02 68 02 02
   04 55 6E 69 74 28 03 64 35 38 05 08 6B 07 FFFFFF84 FFFFFF80
   FFFFFF80 FFFFFF80 00 6C 02 07 49 6E 74 65 67 65 72 10 02 0B
   6D 09 02 6B 0C 28 03 6A 35 6F 21 01 70 01 2A 75
   73 65 20 3C 63 6F 64 65 3E 6A 61 76 61 2E 6C 61
   6E 67 2E 49 6E 74 65 67 65 72 3C 2F 63 6F 64 65
   3E 20 69 6E 73 74 65 61 64 05 08 72 07 FFFFFF84 FFFFFF80 FFFFFF80
   FFFFFF80 00 73 02 09 43 68 61 72 61 63 74 65 72 10 02
   0B 74 09 02 72 0C 28 03 71 35 76 21 01 77 01 2C
   75 73 65 20 3C 63 6F 64 65 3E 6A 61 76 61 2E 6C
   61 6E 67 2E 43 68 61 72 61 63 74 65 72 3C 2F 63
   6F 64 65 3E 20 69 6E 73 74 65 61 64 05 08 79 07
   FFFFFF84 FFFFFF80 FFFFFF80 FFFFFF80 00 7A 02 06 53 74 72 69 6E 67 10 02
   0B 7B 09 02 79 0C 05 08 7D 07 FFFFFF84 FFFFFF80 FFFFFF80 FFFFFF80 00 7E
   02 08 52 75 6E 6E 61 62 6C 65 10 02 0B 7F 09 02
   7D 0C 05 0A FFFFFF81 01 07 FFFFFF84 FFFFFF80 FFFFFF80 FFFFFF80 00 FFFFFF81 02 02 09
   54 68 72 6F 77 61 62 6C 65 10 03 0B FFFFFF81 03 09 03
   FFFFFF81 01 0C 05 0A FFFFFF81 05 07 FFFFFF84 FFFFFF80 FFFFFF80 FFFFFF80 00 FFFFFF81 06 02
   09 45 78 63 65 70 74 69 6F 6E 10 03 0B FFFFFF81 07 09
   03 FFFFFF81 05 0C 05 0A FFFFFF81 09 07 FFFFFF84 FFFFFF80 FFFFFF80 FFFFFF80 00 FFFFFF81 0A
   02 05 45 72 72 6F 72 10 03 0B FFFFFF81 0B 09 03 FFFFFF81 09
   0C 05 0A FFFFFF81 0D 07 FFFFFF84 FFFFFF80 FFFFFF80 FFFFFF80 00 FFFFFF81 0E 02 10 52
   75 6E 74 69 6D 65 45 78 63 65 70 74 69 6F 6E 10
   03 0B FFFFFF81 0F 09 03 FFFFFF81 0D 0C 05 0A FFFFFF81 11 07 FFFFFF84 FFFFFF80
   FFFFFF80 FFFFFF80 00 FFFFFF81 12 02 14 4E 75 6C 6C 50 6F 69 6E 74
   65 72 45 78 63 65 70 74 69 6F 6E 10 03 0B FFFFFF81 13
   09 03 FFFFFF81 11 0C 05 0A FFFFFF81 15 07 FFFFFF84 FFFFFF80 FFFFFF80 FFFFFF80 00 FFFFFF81
   16 02 12 43 6C 61 73 73 43 61 73 74 45 78 63 65
   70 74 69 6F 6E 10 03 0B FFFFFF81 17 09 03 FFFFFF81 15 0C 05
   0A FFFFFF81 19 07 FFFFFF84 FFFFFF80 FFFFFF80 FFFFFF80 00 FFFFFF81 1A 02 19 49 6E 64
   65 78 4F 75 74 4F 66 42 6F 75 6E 64 73 45 78 63
   65 70 74 69 6F 6E 10 03 0B FFFFFF81 1B 09 03 FFFFFF81 19 0C
   05 0A FFFFFF81 1D 07 FFFFFF84 FFFFFF80 FFFFFF80 FFFFFF80 00 FFFFFF81 1E 02 1E 41 72
   72 61 79 49 6E 64 65 78 4F 75 74 4F 66 42 6F 75
   6E 64 73 45 78 63 65 70 74 69 6F 6E 10 03 0B FFFFFF81
   1F 09 03 FFFFFF81 1D 0C 05 0A FFFFFF81 21 07 FFFFFF84 FFFFFF80 FFFFFF80 FFFFFF80 00
   FFFFFF81 22 02 1F 53 74 72 69 6E 67 49 6E 64 65 78 4F
   75 74 4F 66 42 6F 75 6E 64 73 45 78 63 65 70 74
   69 6F 6E 10 03 0B FFFFFF81 23 09 03 FFFFFF81 21 0C 05 0A FFFFFF81
   25 07 FFFFFF84 FFFFFF80 FFFFFF80 FFFFFF80 00 FFFFFF81 26 02 1D 55 6E 73 75 70
   70 6F 72 74 65 64 4F 70 65 72 61 74 69 6F 6E 45
   78 63 65 70 74 69 6F 6E 10 03 0B FFFFFF81 27 09 03 FFFFFF81
   25 0C 05 0A FFFFFF81 29 07 FFFFFF84 FFFFFF80 FFFFFF80 FFFFFF80 00 FFFFFF81 2A 02 18
   49 6C 6C 65 67 61 6C 41 72 67 75 6D 65 6E 74 45
   78 63 65 70 74 69 6F 6E 10 03 0B FFFFFF81 2B 09 03 FFFFFF81
   29 0C 05 0A FFFFFF81 2D 07 FFFFFF84 FFFFFF80 FFFFFF80 FFFFFF80 00 FFFFFF81 2E 02 16
   4E 6F 53 75 63 68 45 6C 65 6D 65 6E 74 45 78 63
   65 70 74 69 6F 6E 10 04 FFFFFF81 2F FFFFFF81 32 0D 02 FFFFFF81 30
   0A 03 FFFFFF81 31 0E 01 04 75 74 69 6C 09 04 FFFFFF81 2D FFFFFF81
   30 05 0A FFFFFF81 34 07 FFFFFF84 FFFFFF80 FFFFFF80 FFFFFF80 00 FFFFFF81 35 02 15 4E
   75 6D 62 65 72 46 6F 72 6D 61 74 45 78 63 65 70
   74 69 6F 6E 10 03 0B FFFFFF81 36 09 03 FFFFFF81 34 0C 05 0A
   FFFFFF81 38 07 FFFFFF84 FFFFFF80 FFFFFF80 FFFFFF80 00 FFFFFF81 39 02 13 41 62 73 74
   72 61 63 74 4D 65 74 68 6F 64 45 72 72 6F 72 10
   03 0B FFFFFF81 3A 09 03 FFFFFF81 38 0C 08 09 FFFFFF81 3C 07 FFFFFFC2 FFFFFF80
   FFFFFF84 04 FFFFFF81 3D 01 01 50 15 02 FFFFFF81 3E 0E 04 FFFFFF81 3F FFFFFF81
   44 0E 04 FFFFFF81 40 FFFFFF81 43 0D 02 FFFFFF81 41 0A 03 FFFFFF81 42 04
   01 06 3C 72 6F 6F 74 3E 09 01 03 09 03 FFFFFF81 45 02
   01 07 70 61 63 6B 61 67 65 08 08 FFFFFF81 47 07 FFFFFFA0 FFFFFF80
   04 FFFFFF81 3E 01 02 50 20 08 09 FFFFFF81 49 07 FFFFFFC2 FFFFFF80 FFFFFF84 04
   FFFFFF81 4A 01 01 4C 15 02 FFFFFF81 4B 0E 04 FFFFFF81 4C FFFFFF81 53 0E
   04 FFFFFF81 4D FFFFFF81 50 0E 04 FFFFFF81 3F FFFFFF81 4E 09 03 FFFFFF81 4F 02
   01 0A 63 6F 6C 6C 65 63 74 69 6F 6E 09 04 FFFFFF81 51
   FFFFFF81 52 01 09 69 6D 6D 75 74 61 62 6C 65 0A 03 FFFFFF81
   4F 02 09 04 FFFFFF81 54 FFFFFF81 55 01 04 4C 69 73 74 0A 04
   FFFFFF81 51 FFFFFF81 52 08 08 FFFFFF81 57 07 FFFFFFA0 FFFFFF80 04 FFFFFF81 4B 01 02
   4C 20 08 09 FFFFFF81 59 07 FFFFFFC2 FFFFFF80 FFFFFF84 04 FFFFFF81 5A 01 01 53
   15 02 FFFFFF81 5B 0E 04 FFFFFF81 5C FFFFFF81 5F 0E 04 FFFFFF81 4D FFFFFF81 5D
   09 04 FFFFFF81 5E FFFFFF81 52 01 07 6D 75 74 61 62 6C 65 09
   04 FFFFFF81 60 FFFFFF81 61 01 0D 53 74 72 69 6E 67 42 75 69
   6C 64 65 72 0A 04 FFFFFF81 5E FFFFFF81 52 08 08 FFFFFF81 63 07 FFFFFFA0
   FFFFFF80 04 FFFFFF81 5B 01 02 53 20 08 09 FFFFFF81 65 07 FFFFFFC2 FFFFFF80 FFFFFF84
   00 FFFFFF81 66 01 06 24 73 63 6F 70 65 15 02 FFFFFF81 67 0E
   04 FFFFFF81 68 FFFFFF81 6B 0E 04 FFFFFF81 3F FFFFFF81 69 09 03 FFFFFF81 6A 02
   01 03 78 6D 6C 09 04 FFFFFF81 6C FFFFFF81 6D 01 08 54 6F 70
   53 63 6F 70 65 0A 03 FFFFFF81 6A 02 08 08 FFFFFF81 6F 07 FFFFFFA0
   FFFFFF80 04 FFFFFF81 67 01 07 24 73 63 6F 70 65 20 05 06 FFFFFF81
   71 07 00 FFFFFF81 72 02 08 46 75 6E 63 74 69 6F 6E 15
   06 FFFFFF81 73 FFFFFF81 77 FFFFFF81 7A 10 07 06 FFFFFF81 74 FFFFFF81 76 FFFFFF81 79
   09 03 FFFFFF81 75 02 02 09 46 75 6E 63 74 69 6F 6E 31
   10 03 23 FFFFFF81 77 04 0A FFFFFF81 78 FFFFFF81 70 FFFFFF84 FFFFFF80 FFFFFF88 FFFFFFC2 00
   26 02 01 41 10 03 23 FFFFFF81 7A 04 0A FFFFFF81 7B FFFFFF81 70 FFFFFF84
   FFFFFF80 FFFFFF84 FFFFFFC2 00 26 02 01 42 05 06 FFFFFF81 7D 07 00 FFFFFF81 7E
   02 03 4D 61 70 15 06 FFFFFF81 7F FFFFFF82 03 FFFFFF82 05 10 08 FFFFFF82
   00 FFFFFF82 01 FFFFFF82 02 FFFFFF82 04 0D 02 FFFFFF81 55 09 04 FFFFFF81 7D FFFFFF81
   55 10 03 23 FFFFFF82 03 04 0A FFFFFF81 78 FFFFFF81 7C FFFFFF84 FFFFFF80 FFFFFF80 FFFFFFC2
   00 26 10 03 23 FFFFFF82 05 04 0A FFFFFF81 7B FFFFFF81 7C FFFFFF84 FFFFFF80 FFFFFF84
   FFFFFFC2 00 26 05 06 FFFFFF82 07 07 00 FFFFFF82 08 02 03 53 65 74
   15 04 FFFFFF82 09 FFFFFF82 0C 10 06 FFFFFF82 00 FFFFFF82 0A FFFFFF82 0B 09 04
   FFFFFF82 07 FFFFFF81 55 10 03 23 FFFFFF82 0C 04 0A FFFFFF81 78 FFFFFF82 06 FFFFFF84
   FFFFFF80 FFFFFF80 FFFFFFC2 00 26 08 09 FFFFFF82 0E 07 FFFFFFC2 FFFFFF80 FFFFFF84 00 FFFFFF82 0F
   01 03 4D 61 70 15 02 FFFFFF82 10 0E 04 FFFFFF82 11 FFFFFF82 13 0E
   04 FFFFFF82 12 FFFFFF81 50 0E 03 06 FFFFFF81 4E 09 04 FFFFFF82 0E FFFFFF81 55
   08 08 FFFFFF82 15 07 FFFFFFA0 FFFFFF80 04 FFFFFF82 10 01 04 4D 61 70 20
   08 09 FFFFFF82 17 07 FFFFFFC2 FFFFFF80 FFFFFF84 00 FFFFFF82 18 01 03 53 65 74
   15 02 FFFFFF82 19 0E 04 FFFFFF82 11 FFFFFF82 1A 09 04 FFFFFF82 17 FFFFFF81 55
   08 08 FFFFFF82 1C 07 FFFFFFA0 FFFFFF80 04 FFFFFF82 19 01 04 53 65 74 20
   08 07 FFFFFF82 1E 07 FFFFFF84 00 FFFFFF82 1F 01 05 65 72 72 6F 72
   14 03 27 FFFFFF82 20 08 08 FFFFFF82 21 FFFFFF82 1D FFFFFFC0 00 FFFFFF82 22 01
   07 6D 65 73 73 61 67 65 10 02 1C 78 08 07 FFFFFF82 24
   07 FFFFFF84 00 FFFFFF82 25 01 04 65 78 69 74 14 01 27 08 07
   FFFFFF82 24 07 FFFFFF84 00 FFFFFF82 27 14 03 27 FFFFFF82 28 08 07 FFFFFF82 29
   FFFFFF82 26 FFFFFFC0 00 48 01 06 73 74 61 74 75 73 08 07 FFFFFF82
   2B 07 FFFFFF84 00 FFFFFF82 2C 01 06 61 73 73 65 72 74 14 03
   66 FFFFFF82 2D 08 07 FFFFFF82 2E FFFFFF82 2A FFFFFFC0 00 60 01 09 61 73
   73 65 72 74 69 6F 6E 08 07 FFFFFF82 2B 07 FFFFFF84 00 FFFFFF82 30
   14 05 66 FFFFFF82 31 FFFFFF82 32 08 07 FFFFFF82 2E FFFFFF82 2F FFFFFFC0 00 60
   08 09 FFFFFF82 21 FFFFFF82 2F FFFFFF84 FFFFFFC0 00 FFFFFF82 33 10 04 06 FFFFFF82 34
   2A 09 03 FFFFFF82 35 02 02 08 3C 62 79 6E 61 6D 65 3E
   08 07 FFFFFF82 37 07 FFFFFF84 00 FFFFFF82 38 01 06 61 73 73 75 6D
   65 14 03 66 FFFFFF82 39 08 07 FFFFFF82 3A FFFFFF82 36 FFFFFFC0 00 60 01
   0A 61 73 73 75 6D 70 74 69 6F 6E 08 07 FFFFFF82 37 07
   FFFFFF84 00 FFFFFF82 3C 14 05 66 FFFFFF82 3D FFFFFF82 3E 08 07 FFFFFF82 3A FFFFFF82
   3B FFFFFFC0 00 60 08 09 FFFFFF82 21 FFFFFF82 3B FFFFFF84 FFFFFFC0 00 FFFFFF82 33 08
   07 FFFFFF82 40 07 FFFFFF84 00 FFFFFF82 41 01 07 72 65 71 75 69 72
   65 14 03 66 FFFFFF82 42 08 07 FFFFFF82 43 FFFFFF82 3F FFFFFFC0 00 60 01
   0B 72 65 71 75 69 72 65 6D 65 6E 74 08 07 FFFFFF82 40
   07 FFFFFF84 00 FFFFFF82 45 14 05 66 FFFFFF82 46 FFFFFF82 47 08 07 FFFFFF82 43
   FFFFFF82 44 FFFFFFC0 00 60 08 09 FFFFFF82 21 FFFFFF82 44 FFFFFF84 FFFFFFC0 00 FFFFFF82 33
   05 06 FFFFFF82 49 07 00 FFFFFF82 4A 02 04 50 61 69 72 15 06
   FFFFFF82 4B FFFFFF82 4F FFFFFF82 51 10 07 06 FFFFFF82 4C FFFFFF82 4E FFFFFF82 50 09
   03 FFFFFF82 4D 02 02 06 54 75 70 6C 65 32 10 03 23 FFFFFF82
   4F 04 0A FFFFFF81 78 FFFFFF82 48 FFFFFF84 FFFFFF80 FFFFFF84 FFFFFFC2 00 26 10 03 23
   FFFFFF82 51 04 0A FFFFFF81 7B FFFFFF82 48 FFFFFF84 FFFFFF80 FFFFFF84 FFFFFFC2 00 26 07 07
   FFFFFF82 53 07 FFFFFF88 02 FFFFFF82 54 01 04 50 61 69 72 10 03 1C
   FFFFFF82 55 06 0A FFFFFF82 49 07 FFFFFF84 FFFFFF80 FFFFFF80 FFFFFF88 02 FFFFFF82 56 13 04
   FFFFFF82 55 0A 12 08 07 16 FFFFFF82 55 FFFFFF84 00 FFFFFF82 58 14 02 FFFFFF82
   54 08 08 FFFFFF82 5A FFFFFF82 55 FFFFFF84 00 FFFFFF82 5B 01 05 61 70 70
   6C 79 15 06 FFFFFF82 5C FFFFFF82 5F FFFFFF82 61 14 06 FFFFFF82 5D FFFFFF82 62
   FFFFFF82 64 10 07 06 FFFFFF82 4C FFFFFF82 5E FFFFFF82 60 10 03 23 FFFFFF82 5F
   04 0A FFFFFF81 78 FFFFFF82 59 FFFFFF84 FFFFFF80 FFFFFF80 FFFFFFC2 00 26 10 03 23 FFFFFF82
   61 04 0A FFFFFF81 7B FFFFFF82 59 FFFFFF84 FFFFFF80 FFFFFF80 FFFFFFC2 00 26 08 08 FFFFFF82
   63 FFFFFF82 59 FFFFFFC0 00 FFFFFF82 5E 01 01 78 08 08 FFFFFF82 65 FFFFFF82 59
   FFFFFFC0 00 FFFFFF82 60 01 01 79 08 08 FFFFFF82 67 FFFFFF82 55 FFFFFF84 00 FFFFFF82
   68 01 07 75 6E 61 70 70 6C 79 15 06 FFFFFF82 69 FFFFFF82 6F
   FFFFFF82 71 14 04 FFFFFF82 6A FFFFFF82 72 10 05 06 FFFFFF82 6B FFFFFF82 6D 09
   03 FFFFFF82 6C 02 02 06 4F 70 74 69 6F 6E 10 07 06 FFFFFF82
   4C FFFFFF82 6E FFFFFF82 70 10 03 23 FFFFFF82 6F 04 0A FFFFFF81 78 FFFFFF82 66
   FFFFFF84 FFFFFF80 FFFFFF80 FFFFFFC2 00 26 10 03 23 FFFFFF82 71 04 0A FFFFFF81 7B FFFFFF82
   66 FFFFFF84 FFFFFF80 FFFFFF80 FFFFFFC2 00 26 08 08 FFFFFF82 63 FFFFFF82 66 FFFFFFC0 00 FFFFFF82
   6D 05 06 FFFFFF82 74 07 00 FFFFFF82 75 02 06 54 72 69 70 6C
   65 15 08 FFFFFF82 76 FFFFFF82 7A FFFFFF82 7C FFFFFF82 7E 10 09 06 FFFFFF82 77
   FFFFFF82 79 FFFFFF82 7B FFFFFF82 7D 09 03 FFFFFF82 78 02 02 06 54 75 70
   6C 65 33 10 03 23 FFFFFF82 7A 04 0A FFFFFF81 78 FFFFFF82 73 FFFFFF84 FFFFFF80
   FFFFFF84 FFFFFFC2 00 26 10 03 23 FFFFFF82 7C 04 0A FFFFFF81 7B FFFFFF82 73 FFFFFF84
   FFFFFF80 FFFFFF84 FFFFFFC2 00 26 10 03 23 FFFFFF82 7E 04 0A FFFFFF82 7F FFFFFF82 73
   FFFFFF84 FFFFFF80 FFFFFF84 FFFFFFC2 00 26 02 01 43 07 07 FFFFFF83 01 07 FFFFFF88 02
   FFFFFF83 02 01 06 54 72 69 70 6C 65 10 03 1C FFFFFF83 03 06
   0A FFFFFF82 74 07 FFFFFF84 FFFFFF80 FFFFFF80 FFFFFF88 02 FFFFFF83 04 13 04 FFFFFF83 03 0A
   12 08 07 16 FFFFFF83 03 FFFFFF84 00 FFFFFF83 06 14 02 FFFFFF83 02 08 08
   FFFFFF82 5A FFFFFF83 03 FFFFFF84 00 FFFFFF83 08 15 08 FFFFFF83 09 FFFFFF83 0C FFFFFF83 0E
   FFFFFF83 10 14 08 FFFFFF83 0A FFFFFF83 11 FFFFFF83 12 FFFFFF83 13 10 09 06 FFFFFF82
   77 FFFFFF83 0B FFFFFF83 0D FFFFFF83 0F 10 03 23 FFFFFF83 0C 04 0A FFFFFF81 78
   FFFFFF83 07 FFFFFF84 FFFFFF80 FFFFFF80 FFFFFFC2 00 26 10 03 23 FFFFFF83 0E 04 0A FFFFFF81
   7B FFFFFF83 07 FFFFFF84 FFFFFF80 FFFFFF80 FFFFFFC2 00 26 10 03 23 FFFFFF83 10 04 0A
   FFFFFF82 7F FFFFFF83 07 FFFFFF84 FFFFFF80 FFFFFF80 FFFFFFC2 00 26 08 08 FFFFFF82 63 FFFFFF83 07
   FFFFFFC0 00 FFFFFF83 0B 08 08 FFFFFF82 65 FFFFFF83 07 FFFFFFC0 00 FFFFFF83 0D 08 08
   FFFFFF83 14 FFFFFF83 07 FFFFFFC0 00 FFFFFF83 0F 01 01 7A 08 08 FFFFFF82 67 FFFFFF83
   03 FFFFFF84 00 FFFFFF83 16 15 08 FFFFFF83 17 FFFFFF83 1B FFFFFF83 1D FFFFFF83 1F 14
   04 FFFFFF83 18 FFFFFF83 20 10 05 06 FFFFFF82 6B FFFFFF83 19 10 09 06 FFFFFF82
   77 FFFFFF83 1A FFFFFF83 1C FFFFFF83 1E 10 03 23 FFFFFF83 1B 04 0A FFFFFF81 78
   FFFFFF83 15 FFFFFF84 FFFFFF80 FFFFFF80 FFFFFFC2 00 26 10 03 23 FFFFFF83 1D 04 0A FFFFFF81
   7B FFFFFF83 15 FFFFFF84 FFFFFF80 FFFFFF80 FFFFFFC2 00 26 10 03 23 FFFFFF83 1F 04 0A
   FFFFFF82 7F FFFFFF83 15 FFFFFF84 FFFFFF80 FFFFFF80 FFFFFFC2 00 26 08 08 FFFFFF82 63 FFFFFF83 15
   FFFFFFC0 00 FFFFFF83 19 06 06 FFFFFF83 22 07 00 FFFFFF83 23 02 08 45 6E
   73 75 72 69 6E 67 15 04 FFFFFF83 24 FFFFFF83 27 13 04 FFFFFF83 21
   0A 12 08 0B FFFFFF82 63 FFFFFF83 21 FFFFFF82 FFFFFF80 FFFFFFA0 FFFFFF80 04 FFFFFF83 26 10
   03 23 FFFFFF83 27 04 0A FFFFFF81 78 FFFFFF83 21 FFFFFF84 FFFFFF80 FFFFFF80 FFFFFFC2 00 26
   08 07 16 FFFFFF83 21 FFFFFF84 00 FFFFFF83 29 14 04 FFFFFF83 2A FFFFFF83 2B 10
   05 1C FFFFFF83 21 FFFFFF83 26 08 08 FFFFFF82 63 FFFFFF83 28 FFFFFFC0 00 FFFFFF83 26
   08 08 FFFFFF83 2D FFFFFF83 21 FFFFFF84 00 FFFFFF83 2E 01 08 65 6E 73 75
   72 69 6E 67 14 04 FFFFFF83 26 FFFFFF83 2F 08 07 FFFFFF83 30 FFFFFF83 2C
   FFFFFFC0 00 60 01 04 63 6F 6E 64 08 08 FFFFFF83 2D FFFFFF83 21 FFFFFF84
   00 FFFFFF83 32 14 06 FFFFFF83 26 FFFFFF83 33 FFFFFF83 34 08 07 FFFFFF83 30 FFFFFF83
   31 FFFFFFC0 00 60 08 07 FFFFFF83 35 FFFFFF83 31 FFFFFFC0 00 2A 01 03 6D
   73 67 08 08 FFFFFF83 2D FFFFFF83 21 FFFFFF84 00 FFFFFF83 37 14 04 FFFFFF83 26
   FFFFFF83 38 08 08 FFFFFF83 30 FFFFFF83 36 FFFFFFC0 00 FFFFFF83 39 10 06 06 FFFFFF81
   74 FFFFFF83 26 60 08 08 FFFFFF83 2D FFFFFF83 21 FFFFFF84 00 FFFFFF83 3B 14 06
   FFFFFF83 26 FFFFFF83 3C FFFFFF83 3D 08 08 FFFFFF83 30 FFFFFF83 3A FFFFFFC0 00 FFFFFF83 39
   08 07 FFFFFF83 35 FFFFFF83 3A FFFFFFC0 00 2A 08 07 FFFFFF83 3F 07 FFFFFF84 01
   FFFFFF83 40 01 0C 61 6E 79 32 45 6E 73 75 72 69 6E 67
   15 04 FFFFFF83 41 FFFFFF83 44 14 04 FFFFFF83 42 FFFFFF83 45 10 05 1C FFFFFF83
   21 FFFFFF83 43 10 03 23 FFFFFF83 44 04 0A FFFFFF81 78 FFFFFF83 3E FFFFFF84 FFFFFF80
   FFFFFF80 FFFFFFC2 00 26 08 08 FFFFFF82 63 FFFFFF83 3E FFFFFFC0 00 FFFFFF83 43 06 06
   FFFFFF83 47 07 00 FFFFFF83 48 02 0A 41 72 72 6F 77 41 73 73
   6F 63 15 04 FFFFFF83 49 FFFFFF83 4C 13 04 FFFFFF83 46 0A 12 08 0B
   FFFFFF82 63 FFFFFF83 46 FFFFFF82 FFFFFF80 FFFFFFA0 FFFFFF80 04 FFFFFF83 4B 10 03 23 FFFFFF83 4C
   04 0A FFFFFF81 78 FFFFFF83 46 FFFFFF84 FFFFFF80 FFFFFF80 FFFFFFC2 00 26 08 07 16 FFFFFF83
   46 FFFFFF84 00 FFFFFF83 4E 14 04 FFFFFF83 4F FFFFFF83 50 10 05 1C FFFFFF83 46
   FFFFFF83 4B 08 08 FFFFFF82 63 FFFFFF83 4D FFFFFFC0 00 FFFFFF83 4B 08 08 FFFFFF83 52
   FFFFFF83 46 FFFFFF84 00 FFFFFF83 53 01 0E 24 6D 69 6E 75 73 24 67
   72 65 61 74 65 72 15 04 FFFFFF83 54 FFFFFF83 57 14 04 FFFFFF83 55
   FFFFFF83 58 10 07 06 FFFFFF82 4C FFFFFF83 4B FFFFFF83 56 10 03 23 FFFFFF83 57
   04 0A FFFFFF81 7B FFFFFF83 51 FFFFFF84 FFFFFF80 FFFFFF80 FFFFFFC2 00 26 08 08 FFFFFF82 65
   FFFFFF83 51 FFFFFFC0 00 FFFFFF83 56 08 08 FFFFFF83 5A FFFFFF83 46 FFFFFF84 00 FFFFFF83 5B
   01 0C 24 75 32 31 39 32 24 75 32 31 39 32 15 04
   FFFFFF83 5C FFFFFF83 5F 14 04 FFFFFF83 5D FFFFFF83 60 10 07 06 FFFFFF82 4C FFFFFF83
   4B FFFFFF83 5E 10 03 23 FFFFFF83 5F 04 0A FFFFFF81 7B FFFFFF83 59 FFFFFF84 FFFFFF80
   FFFFFF80 FFFFFFC2 00 26 08 08 FFFFFF82 65 FFFFFF83 59 FFFFFFC0 00 FFFFFF83 5E 08 07
   FFFFFF83 62 07 FFFFFF84 01 FFFFFF83 63 01 0E 61 6E 79 32 41 72 72
   6F 77 41 73 73 6F 63 15 04 FFFFFF83 64 FFFFFF83 67 14 04 FFFFFF83
   65 FFFFFF83 68 10 05 1C FFFFFF83 46 FFFFFF83 66 10 03 23 FFFFFF83 67 04
   0A FFFFFF81 78 FFFFFF83 61 FFFFFF84 FFFFFF80 FFFFFF80 FFFFFFC2 00 26 08 08 FFFFFF82 63 FFFFFF83
   61 FFFFFFC0 00 FFFFFF83 66 08 07 FFFFFF83 6A 07 FFFFFF84 00 FFFFFF83 6B 01 05
   54 75 70 6C 65 15 04 FFFFFF83 6C FFFFFF83 71 14 04 FFFFFF83 6D FFFFFF83
   73 10 05 06 FFFFFF83 6E FFFFFF83 70 09 03 FFFFFF83 6F 02 02 06 54
   75 70 6C 65 31 10 03 23 FFFFFF83 71 04 0A FFFFFF83 72 FFFFFF83 69
   FFFFFF84 FFFFFF80 FFFFFF80 FFFFFFC2 00 26 02 02 41 31 08 08 FFFFFF83 74 FFFFFF83 69
   FFFFFFC0 00 FFFFFF83 70 01 02 78 31 08 07 FFFFFF83 6A 07 FFFFFF84 00 FFFFFF83
   76 15 06 FFFFFF83 77 FFFFFF83 7A FFFFFF83 7C 14 06 FFFFFF83 78 FFFFFF83 7E FFFFFF83
   7F 10 07 06 FFFFFF82 4C FFFFFF83 79 FFFFFF83 7B 10 03 23 FFFFFF83 7A 04
   0A FFFFFF83 72 FFFFFF83 75 FFFFFF84 FFFFFF80 FFFFFF80 FFFFFFC2 00 26 10 03 23 FFFFFF83 7C
   04 0A FFFFFF83 7D FFFFFF83 75 FFFFFF84 FFFFFF80 FFFFFF80 FFFFFFC2 00 26 02 02 41 32
   08 08 FFFFFF83 74 FFFFFF83 75 FFFFFFC0 00 FFFFFF83 79 08 08 FFFFFF84 00 FFFFFF83 75
   FFFFFFC0 00 FFFFFF83 7B 01 02 78 32 08 07 FFFFFF83 6A 07 FFFFFF84 00 FFFFFF84
   02 15 08 FFFFFF84 03 FFFFFF84 06 FFFFFF84 08 FFFFFF84 0A 14 08 FFFFFF84 04 FFFFFF84
   0C FFFFFF84 0D FFFFFF84 0E 10 09 06 FFFFFF82 77 FFFFFF84 05 FFFFFF84 07 FFFFFF84 09
   10 03 23 FFFFFF84 06 04 0A FFFFFF83 72 FFFFFF84 01 FFFFFF84 FFFFFF80 FFFFFF80 FFFFFFC2 00
   26 10 03 23 FFFFFF84 08 04 0A FFFFFF83 7D FFFFFF84 01 FFFFFF84 FFFFFF80 FFFFFF80 FFFFFFC2
   00 26 10 03 23 FFFFFF84 0A 04 0A FFFFFF84 0B FFFFFF84 01 FFFFFF84 FFFFFF80 FFFFFF80
   FFFFFFC2 00 26 02 02 41 33 08 08 FFFFFF83 74 FFFFFF84 01 FFFFFFC0 00 FFFFFF84
   05 08 08 FFFFFF84 00 FFFFFF84 01 FFFFFFC0 00 FFFFFF84 07 08 08 FFFFFF84 0F FFFFFF84
   01 FFFFFFC0 00 FFFFFF84 09 01 02 78 33 08 07 FFFFFF83 6A 07 FFFFFF84 00
   FFFFFF84 11 15 0A FFFFFF84 12 FFFFFF84 17 FFFFFF84 19 FFFFFF84 1B FFFFFF84 1D 14 0A
   FFFFFF84 13 FFFFFF84 1F FFFFFF84 20 FFFFFF84 21 FFFFFF84 22 10 0B 06 FFFFFF84 14 FFFFFF84
   16 FFFFFF84 18 FFFFFF84 1A FFFFFF84 1C 09 03 FFFFFF84 15 02 02 06 54 75
   70 6C 65 34 10 03 23 FFFFFF84 17 04 0A FFFFFF83 72 FFFFFF84 10 FFFFFF84
   FFFFFF80 FFFFFF80 FFFFFFC2 00 26 10 03 23 FFFFFF84 19 04 0A FFFFFF83 7D FFFFFF84 10
   FFFFFF84 FFFFFF80 FFFFFF80 FFFFFFC2 00 26 10 03 23 FFFFFF84 1B 04 0A FFFFFF84 0B FFFFFF84
   10 FFFFFF84 FFFFFF80 FFFFFF80 FFFFFFC2 00 26 10 03 23 FFFFFF84 1D 04 0A FFFFFF84 1E
   FFFFFF84 10 FFFFFF84 FFFFFF80 FFFFFF80 FFFFFFC2 00 26 02 02 41 34 08 08 FFFFFF83 74
   FFFFFF84 10 FFFFFFC0 00 FFFFFF84 16 08 08 FFFFFF84 00 FFFFFF84 10 FFFFFFC0 00 FFFFFF84 18
   08 08 FFFFFF84 0F FFFFFF84 10 FFFFFFC0 00 FFFFFF84 1A 08 08 FFFFFF84 23 FFFFFF84 10
   FFFFFFC0 00 FFFFFF84 1C 01 02 78 34 08 07 FFFFFF83 6A 07 FFFFFF84 00 FFFFFF84
   25 15 0C FFFFFF84 26 FFFFFF84 2B FFFFFF84 2D FFFFFF84 2F FFFFFF84 31 FFFFFF84 33 14
   0C FFFFFF84 27 FFFFFF84 35 FFFFFF84 36 FFFFFF84 37 FFFFFF84 38 FFFFFF84 39 10 0D 06
   FFFFFF84 28 FFFFFF84 2A FFFFFF84 2C FFFFFF84 2E FFFFFF84 30 FFFFFF84 32 09 03 FFFFFF84 29
   02 02 06 54 75 70 6C 65 35 10 03 23 FFFFFF84 2B 04 0A
   FFFFFF83 72 FFFFFF84 24 FFFFFF84 FFFFFF80 FFFFFF80 FFFFFFC2 00 26 10 03 23 FFFFFF84 2D 04
   0A FFFFFF83 7D FFFFFF84 24 FFFFFF84 FFFFFF80 FFFFFF80 FFFFFFC2 00 26 10 03 23 FFFFFF84 2F
   04 0A FFFFFF84 0B FFFFFF84 24 FFFFFF84 FFFFFF80 FFFFFF80 FFFFFFC2 00 26 10 03 23 FFFFFF84
   31 04 0A FFFFFF84 1E FFFFFF84 24 FFFFFF84 FFFFFF80 FFFFFF80 FFFFFFC2 00 26 10 03 23
   FFFFFF84 33 04 0A FFFFFF84 34 FFFFFF84 24 FFFFFF84 FFFFFF80 FFFFFF80 FFFFFFC2 00 26 02 02
   41 35 08 08 FFFFFF83 74 FFFFFF84 24 FFFFFFC0 00 FFFFFF84 2A 08 08 FFFFFF84 00
   FFFFFF84 24 FFFFFFC0 00 FFFFFF84 2C 08 08 FFFFFF84 0F FFFFFF84 24 FFFFFFC0 00 FFFFFF84 2E
   08 08 FFFFFF84 23 FFFFFF84 24 FFFFFFC0 00 FFFFFF84 30 08 08 FFFFFF84 3A FFFFFF84 24
   FFFFFFC0 00 FFFFFF84 32 01 02 78 35 08 07 FFFFFF83 6A 07 FFFFFF84 00 FFFFFF84
   3C 15 0E FFFFFF84 3D FFFFFF84 42 FFFFFF84 44 FFFFFF84 46 FFFFFF84 48 FFFFFF84 4A FFFFFF84
   4C 14 0E FFFFFF84 3E FFFFFF84 4E FFFFFF84 4F FFFFFF84 50 FFFFFF84 51 FFFFFF84 52 FFFFFF84
   53 10 0F 06 FFFFFF84 3F FFFFFF84 41 FFFFFF84 43 FFFFFF84 45 FFFFFF84 47 FFFFFF84 49
   FFFFFF84 4B 09 03 FFFFFF84 40 02 02 06 54 75 70 6C 65 36 10
   03 23 FFFFFF84 42 04 0A FFFFFF83 72 FFFFFF84 3B FFFFFF84 FFFFFF80 FFFFFF80 FFFFFFC2 00 26
   10 03 23 FFFFFF84 44 04 0A FFFFFF83 7D FFFFFF84 3B FFFFFF84 FFFFFF80 FFFFFF80 FFFFFFC2 00
   26 10 03 23 FFFFFF84 46 04 0A FFFFFF84 0B FFFFFF84 3B FFFFFF84 FFFFFF80 FFFFFF80 FFFFFFC2
   00 26 10 03 23 FFFFFF84 48 04 0A FFFFFF84 1E FFFFFF84 3B FFFFFF84 FFFFFF80 FFFFFF80
   FFFFFFC2 00 26 10 03 23 FFFFFF84 4A 04 0A FFFFFF84 34 FFFFFF84 3B FFFFFF84 FFFFFF80
   FFFFFF80 FFFFFFC2 00 26 10 03 23 FFFFFF84 4C 04 0A FFFFFF84 4D FFFFFF84 3B FFFFFF84
   FFFFFF80 FFFFFF80 FFFFFFC2 00 26 02 02 41 36 08 08 FFFFFF83 74 FFFFFF84 3B FFFFFFC0
   00 FFFFFF84 41 08 08 FFFFFF84 00 FFFFFF84 3B FFFFFFC0 00 FFFFFF84 43 08 08 FFFFFF84
   0F FFFFFF84 3B FFFFFFC0 00 FFFFFF84 45 08 08 FFFFFF84 23 FFFFFF84 3B FFFFFFC0 00 FFFFFF84
   47 08 08 FFFFFF84 3A FFFFFF84 3B FFFFFFC0 00 FFFFFF84 49 08 08 FFFFFF84 54 FFFFFF84
   3B FFFFFFC0 00 FFFFFF84 4B 01 02 78 36 08 07 FFFFFF83 6A 07 FFFFFF84 00
   FFFFFF84 56 15 10 FFFFFF84 57 FFFFFF84 5C FFFFFF84 5E FFFFFF84 60 FFFFFF84 62 FFFFFF84 64
   FFFFFF84 66 FFFFFF84 68 14 10 FFFFFF84 58 FFFFFF84 6A FFFFFF84 6B FFFFFF84 6C FFFFFF84 6D
   FFFFFF84 6E FFFFFF84 6F FFFFFF84 70 10 11 06 FFFFFF84 59 FFFFFF84 5B FFFFFF84 5D FFFFFF84
   5F FFFFFF84 61 FFFFFF84 63 FFFFFF84 65 FFFFFF84 67 09 03 FFFFFF84 5A 02 02 06
   54 75 70 6C 65 37 10 03 23 FFFFFF84 5C 04 0A FFFFFF83 72 FFFFFF84
   55 FFFFFF84 FFFFFF80 FFFFFF80 FFFFFFC2 00 26 10 03 23 FFFFFF84 5E 04 0A FFFFFF83 7D
   FFFFFF84 55 FFFFFF84 FFFFFF80 FFFFFF80 FFFFFFC2 00 26 10 03 23 FFFFFF84 60 04 0A FFFFFF84
   0B FFFFFF84 55 FFFFFF84 FFFFFF80 FFFFFF80 FFFFFFC2 00 26 10 03 23 FFFFFF84 62 04 0A
   FFFFFF84 1E FFFFFF84 55 FFFFFF84 FFFFFF80 FFFFFF80 FFFFFFC2 00 26 10 03 23 FFFFFF84 64 04
   0A FFFFFF84 34 FFFFFF84 55 FFFFFF84 FFFFFF80 FFFFFF80 FFFFFFC2 00 26 10 03 23 FFFFFF84 66
   04 0A FFFFFF84 4D FFFFFF84 55 FFFFFF84 FFFFFF80 FFFFFF80 FFFFFFC2 00 26 10 03 23 FFFFFF84
   68 04 0A FFFFFF84 69 FFFFFF84 55 FFFFFF84 FFFFFF80 FFFFFF80 FFFFFFC2 00 26 02 02 41
   37 08 08 FFFFFF83 74 FFFFFF84 55 FFFFFFC0 00 FFFFFF84 5B 08 08 FFFFFF84 00 FFFFFF84
   55 FFFFFFC0 00 FFFFFF84 5D 08 08 FFFFFF84 0F FFFFFF84 55 FFFFFFC0 00 FFFFFF84 5F 08
   08 FFFFFF84 23 FFFFFF84 55 FFFFFFC0 00 FFFFFF84 61 08 08 FFFFFF84 3A FFFFFF84 55 FFFFFFC0
   00 FFFFFF84 63 08 08 FFFFFF84 54 FFFFFF84 55 FFFFFFC0 00 FFFFFF84 65 08 08 FFFFFF84
   71 FFFFFF84 55 FFFFFFC0 00 FFFFFF84 67 01 02 78 37 08 07 FFFFFF83 6A 07
   FFFFFF84 00 FFFFFF84 73 15 12 FFFFFF84 74 FFFFFF84 79 FFFFFF84 7B FFFFFF84 7D FFFFFF84 7F
   FFFFFF85 01 FFFFFF85 03 FFFFFF85 05 FFFFFF85 07 14 12 FFFFFF84 75 FFFFFF85 09 FFFFFF85 0A
   FFFFFF85 0B FFFFFF85 0C FFFFFF85 0D FFFFFF85 0E FFFFFF85 0F FFFFFF85 10 10 13 06 FFFFFF84
   76 FFFFFF84 78 FFFFFF84 7A FFFFFF84 7C FFFFFF84 7E FFFFFF85 00 FFFFFF85 02 FFFFFF85 04 FFFFFF85
   06 09 03 FFFFFF84 77 02 02 06 54 75 70 6C 65 38 10 03
   23 FFFFFF84 79 04 0A FFFFFF83 72 FFFFFF84 72 FFFFFF84 FFFFFF80 FFFFFF80 FFFFFFC2 00 26 10
   03 23 FFFFFF84 7B 04 0A FFFFFF83 7D FFFFFF84 72 FFFFFF84 FFFFFF80 FFFFFF80 FFFFFFC2 00 26
   10 03 23 FFFFFF84 7D 04 0A FFFFFF84 0B FFFFFF84 72 FFFFFF84 FFFFFF80 FFFFFF80 FFFFFFC2 00
   26 10 03 23 FFFFFF84 7F 04 0A FFFFFF84 1E FFFFFF84 72 FFFFFF84 FFFFFF80 FFFFFF80 FFFFFFC2
   00 26 10 03 23 FFFFFF85 01 04 0A FFFFFF84 34 FFFFFF84 72 FFFFFF84 FFFFFF80 FFFFFF80
   FFFFFFC2 00 26 10 03 23 FFFFFF85 03 04 0A FFFFFF84 4D FFFFFF84 72 FFFFFF84 FFFFFF80
   FFFFFF80 FFFFFFC2 00 26 10 03 23 FFFFFF85 05 04 0A FFFFFF84 69 FFFFFF84 72 FFFFFF84
   FFFFFF80 FFFFFF80 FFFFFFC2 00 26 10 03 23 FFFFFF85 07 04 0A FFFFFF85 08 FFFFFF84 72
   FFFFFF84 FFFFFF80 FFFFFF80 FFFFFFC2 00 26 02 02 41 38 08 08 FFFFFF83 74 FFFFFF84 72
   FFFFFFC0 00 FFFFFF84 78 08 08 FFFFFF84 00 FFFFFF84 72 FFFFFFC0 00 FFFFFF84 7A 08 08
   FFFFFF84 0F FFFFFF84 72 FFFFFFC0 00 FFFFFF84 7C 08 08 FFFFFF84 23 FFFFFF84 72 FFFFFFC0 00
   FFFFFF84 7E 08 08 FFFFFF84 3A FFFFFF84 72 FFFFFFC0 00 FFFFFF85 00 08 08 FFFFFF84 54
   FFFFFF84 72 FFFFFFC0 00 FFFFFF85 02 08 08 FFFFFF84 71 FFFFFF84 72 FFFFFFC0 00 FFFFFF85 04
   08 08 FFFFFF85 11 FFFFFF84 72 FFFFFFC0 00 FFFFFF85 06 01 02 78 38 08 07
   FFFFFF83 6A 07 FFFFFF84 00 FFFFFF85 13 15 14 FFFFFF85 14 FFFFFF85 19 FFFFFF85 1B FFFFFF85
   1D FFFFFF85 1F FFFFFF85 21 FFFFFF85 23 FFFFFF85 25 FFFFFF85 27 FFFFFF85 29 14 14 FFFFFF85
   15 FFFFFF85 2B FFFFFF85 2C FFFFFF85 2D FFFFFF85 2E FFFFFF85 2F FFFFFF85 30 FFFFFF85 31 FFFFFF85
   32 FFFFFF85 33 10 15 06 FFFFFF85 16 FFFFFF85 18 FFFFFF85 1A FFFFFF85 1C FFFFFF85 1E
   FFFFFF85 20 FFFFFF85 22 FFFFFF85 24 FFFFFF85 26 FFFFFF85 28 09 03 FFFFFF85 17 02 02
   06 54 75 70 6C 65 39 10 03 23 FFFFFF85 19 04 0A FFFFFF83 72
   FFFFFF85 12 FFFFFF84 FFFFFF80 FFFFFF80 FFFFFFC2 00 26 10 03 23 FFFFFF85 1B 04 0A FFFFFF83
   7D FFFFFF85 12 FFFFFF84 FFFFFF80 FFFFFF80 FFFFFFC2 00 26 10 03 23 FFFFFF85 1D 04 0A
   FFFFFF84 0B FFFFFF85 12 FFFFFF84 FFFFFF80 FFFFFF80 FFFFFFC2 00 26 10 03 23 FFFFFF85 1F 04
   0A FFFFFF84 1E FFFFFF85 12 FFFFFF84 FFFFFF80 FFFFFF80 FFFFFFC2 00 26 10 03 23 FFFFFF85 21
   04 0A FFFFFF84 34 FFFFFF85 12 FFFFFF84 FFFFFF80 FFFFFF80 FFFFFFC2 00 26 10 03 23 FFFFFF85
   23 04 0A FFFFFF84 4D FFFFFF85 12 FFFFFF84 FFFFFF80 FFFFFF80 FFFFFFC2 00 26 10 03 23
   FFFFFF85 25 04 0A FFFFFF84 69 FFFFFF85 12 FFFFFF84 FFFFFF80 FFFFFF80 FFFFFFC2 00 26 10 03
   23 FFFFFF85 27 04 0A FFFFFF85 08 FFFFFF85 12 FFFFFF84 FFFFFF80 FFFFFF80 FFFFFFC2 00 26 10
   03 23 FFFFFF85 29 04 0A FFFFFF85 2A FFFFFF85 12 FFFFFF84 FFFFFF80 FFFFFF80 FFFFFFC2 00 26
   02 02 41 39 08 08 FFFFFF83 74 FFFFFF85 12 FFFFFFC0 00 FFFFFF85 18 08 08
   FFFFFF84 00 FFFFFF85 12 FFFFFFC0 00 FFFFFF85 1A 08 08 FFFFFF84 0F FFFFFF85 12 FFFFFFC0 00
   FFFFFF85 1C 08 08 FFFFFF84 23 FFFFFF85 12 FFFFFFC0 00 FFFFFF85 1E 08 08 FFFFFF84 3A
   FFFFFF85 12 FFFFFFC0 00 FFFFFF85 20 08 08 FFFFFF84 54 FFFFFF85 12 FFFFFFC0 00 FFFFFF85 22
   08 08 FFFFFF84 71 FFFFFF85 12 FFFFFFC0 00 FFFFFF85 24 08 08 FFFFFF85 11 FFFFFF85 12
   FFFFFFC0 00 FFFFFF85 26 08 08 FFFFFF85 34 FFFFFF85 12 FFFFFFC0 00 FFFFFF85 28 01 02
   78 39 08 07 FFFFFF85 36 07 FFFFFF84 00 FFFFFF85 37 01 05 70 72 69
   6E 74 14 03 66 FFFFFF85 38 08 07 FFFFFF82 63 FFFFFF85 35 FFFFFFC0 00 2A
   08 07 FFFFFF85 3A 07 FFFFFF84 00 FFFFFF85 3B 01 07 70 72 69 6E 74
   6C 6E 14 01 66 08 07 FFFFFF85 3A 07 FFFFFF84 00 FFFFFF85 3D 14 03
   66 FFFFFF85 3E 08 07 FFFFFF82 63 FFFFFF85 3C FFFFFFC0 00 2A 08 07 FFFFFF85 40
   07 FFFFFF84 00 FFFFFF85 41 01 06 70 72 69 6E 74 66 14 05 66
   FFFFFF85 42 FFFFFF85 44 08 08 FFFFFF85 43 FFFFFF85 3F FFFFFFC0 00 FFFFFF82 22 01 04
   74 65 78 74 08 08 FFFFFF85 45 FFFFFF85 3F FFFFFFC0 00 FFFFFF85 46 01 02
   78 73 10 04 06 FFFFFF85 47 2A 09 03 FFFFFF85 48 02 02 0A 3C
   72 65 70 65 61 74 65 64 3E 08 07 FFFFFF85 4A 07 FFFFFF84 00
   FFFFFF85 4B 01 06 66 6F 72 6D 61 74 14 06 FFFFFF85 4C FFFFFF85 4E
   FFFFFF85 4F 10 03 FFFFFF85 4D 78 0E 02 06 00 08 08 FFFFFF85 43 FFFFFF85
   49 FFFFFFC0 00 FFFFFF82 22 08 08 FFFFFF85 45 FFFFFF85 49 FFFFFFC0 00 FFFFFF85 46 08
   07 FFFFFF85 51 07 FFFFFF84 00 FFFFFF85 52 01 08 72 65 61 64 4C 69
   6E 65 14 02 FFFFFF82 22 08 07 FFFFFF85 51 07 FFFFFF84 00 FFFFFF85 54 14
   06 FFFFFF85 4C FFFFFF85 55 FFFFFF85 56 08 08 FFFFFF85 43 FFFFFF85 53 FFFFFFC0 00 FFFFFF82
   22 08 08 FFFFFF85 57 FFFFFF85 53 FFFFFFC0 00 FFFFFF85 46 01 04 61 72 67
   73 08 07 FFFFFF85 59 07 FFFFFF84 00 FFFFFF85 5A 01 0B 72 65 61 64
   42 6F 6F 6C 65 61 6E 14 01 60 08 07 FFFFFF85 5C 07 FFFFFF84
   00 FFFFFF85 5D 01 08 72 65 61 64 42 79 74 65 14 01 31
   08 07 FFFFFF85 5F 07 FFFFFF84 00 FFFFFF85 60 01 09 72 65 61 64 53
   68 6F 72 74 14 01 3C 08 07 FFFFFF85 62 07 FFFFFF84 00 FFFFFF85 63
   01 08 72 65 61 64 43 68 61 72 14 01 42 08 07 FFFFFF85
   65 07 FFFFFF84 00 FFFFFF85 66 01 07 72 65 61 64 49 6E 74 14
   01 48 08 07 FFFFFF85 68 07 FFFFFF84 00 FFFFFF85 69 01 08 72 65 61
   64 4C 6F 6E 67 14 01 4E 08 07 FFFFFF85 6B 07 FFFFFF84 00 FFFFFF85
   6C 01 09 72 65 61 64 46 6C 6F 61 74 14 01 54 08
   07 FFFFFF85 6E 07 FFFFFF84 00 FFFFFF85 6F 01 0A 72 65 61 64 44 6F
   75 62 6C 65 14 01 5A 08 07 FFFFFF85 71 07 FFFFFF84 00 FFFFFF85 72
   01 05 72 65 61 64 66 14 04 FFFFFF85 73 FFFFFF85 78 10 05 FFFFFF85
   74 FFFFFF85 75 2A 0E 03 06 FFFFFF81 44 09 04 FFFFFF85 76 FFFFFF85 77 02
   04 4C 69 73 74 0A 03 FFFFFF81 45 02 08 08 FFFFFF85 4A FFFFFF85 70
   FFFFFFC0 00 FFFFFF82 22 08 07 FFFFFF85 7A 07 FFFFFF84 00 FFFFFF85 7B 01 06 72
   65 61 64 66 31 14 03 2A FFFFFF85 7C 08 08 FFFFFF85 4A FFFFFF85 79
   FFFFFFC0 00 FFFFFF82 22 08 07 FFFFFF85 7E 07 FFFFFF84 00 FFFFFF85 7F 01 06 72
   65 61 64 66 32 14 04 FFFFFF86 00 FFFFFF86 01 10 05 06 FFFFFF82 4C
   2A 2A 08 08 FFFFFF85 4A FFFFFF85 7D FFFFFFC0 00 FFFFFF82 22 08 07 FFFFFF86 03
   07 FFFFFF84 00 FFFFFF86 04 01 06 72 65 61 64 66 33 14 04 FFFFFF86
   05 FFFFFF86 06 10 06 06 FFFFFF82 77 2A 2A 2A 08 08 FFFFFF85 4A FFFFFF86
   02 FFFFFFC0 00 FFFFFF82 22 08 07 FFFFFF86 08 07 FFFFFF84 01 FFFFFF86 09 01 08
   69 64 65 6E 74 69 74 79 15 04 FFFFFF86 0A FFFFFF86 0C 14 04
   FFFFFF86 0B FFFFFF86 0D 10 03 23 FFFFFF86 0C 04 0A FFFFFF81 78 FFFFFF86 07 FFFFFF84
   FFFFFF80 FFFFFF80 FFFFFFC2 00 26 08 08 FFFFFF82 63 FFFFFF86 07 FFFFFFC0 00 FFFFFF86 0B 08
   07 FFFFFF86 0F 07 FFFFFF84 01 FFFFFF86 10 01 0B 62 79 74 65 57 72
   61 70 70 65 72 14 04 FFFFFF86 11 FFFFFF86 17 10 04 FFFFFF86 12 FFFFFF86
   15 0D 02 FFFFFF86 13 0A 03 FFFFFF86 14 02 01 07 72 75 6E 74
   69 6D 65 09 04 FFFFFF86 16 FFFFFF86 13 02 08 52 69 63 68 42
   79 74 65 08 07 FFFFFF82 63 FFFFFF86 0E FFFFFFC0 00 31 08 07 FFFFFF86 19
   07 FFFFFF84 01 FFFFFF86 1A 01 0C 73 68 6F 72 74 57 72 61 70
   70 65 72 14 04 FFFFFF86 1B FFFFFF86 1E 10 04 FFFFFF86 12 FFFFFF86 1C 09
   04 FFFFFF86 1D FFFFFF86 13 02 09 52 69 63 68 53 68 6F 72 74
   08 07 FFFFFF82 63 FFFFFF86 18 FFFFFFC0 00 3C 08 07 FFFFFF86 20 07 FFFFFF84 01
   FFFFFF86 21 01 0A 69 6E 74 57 72 61 70 70 65 72 14 04
   FFFFFF86 22 FFFFFF86 25 10 04 FFFFFF86 12 FFFFFF86 23 09 04 FFFFFF86 24 FFFFFF86 13
   02 07 52 69 63 68 49 6E 74 08 07 FFFFFF82 63 FFFFFF86 1F FFFFFFC0
   00 48 08 07 FFFFFF86 27 07 FFFFFF84 01 FFFFFF86 28 01 0B 63 68 61
   72 57 72 61 70 70 65 72 14 04 FFFFFF86 29 FFFFFF86 2C 10 04
   FFFFFF86 12 FFFFFF86 2A 09 04 FFFFFF86 2B FFFFFF86 13 02 08 52 69 63 68
   43 68 61 72 08 07 FFFFFF86 2D FFFFFF86 26 FFFFFFC0 00 42 01 01 63
   08 07 FFFFFF86 2F 07 FFFFFF84 01 FFFFFF86 30 01 0B 6C 6F 6E 67 57
   72 61 70 70 65 72 14 04 FFFFFF86 31 FFFFFF86 34 10 04 FFFFFF86 12
   FFFFFF86 32 09 04 FFFFFF86 33 FFFFFF86 13 02 08 52 69 63 68 4C 6F
   6E 67 08 07 FFFFFF82 63 FFFFFF86 2E FFFFFFC0 00 4E 08 07 FFFFFF86 36 07
   FFFFFF84 01 FFFFFF86 37 01 0C 66 6C 6F 61 74 57 72 61 70 70
   65 72 14 04 FFFFFF86 38 FFFFFF86 3B 10 04 FFFFFF86 12 FFFFFF86 39 09 04
   FFFFFF86 3A FFFFFF86 13 02 09 52 69 63 68 46 6C 6F 61 74 08
   07 FFFFFF82 63 FFFFFF86 35 FFFFFFC0 00 54 08 07 FFFFFF86 3D 07 FFFFFF84 01 FFFFFF86
   3E 01 0D 64 6F 75 62 6C 65 57 72 61 70 70 65 72
   14 04 FFFFFF86 3F FFFFFF86 42 10 04 FFFFFF86 12 FFFFFF86 40 09 04 FFFFFF86 41
   FFFFFF86 13 02 0A 52 69 63 68 44 6F 75 62 6C 65 08 07
   FFFFFF82 63 FFFFFF86 3C FFFFFFC0 00 5A 08 07 FFFFFF86 44 07 FFFFFF84 01 FFFFFF86 45
   01 0E 62 6F 6F 6C 65 61 6E 57 72 61 70 70 65 72
   14 04 FFFFFF86 46 FFFFFF86 49 10 04 FFFFFF86 12 FFFFFF86 47 09 04 FFFFFF86 48
   FFFFFF86 13 02 0B 52 69 63 68 42 6F 6F 6C 65 61 6E 08
   07 FFFFFF82 63 FFFFFF86 43 FFFFFFC0 00 60 08 07 FFFFFF86 4B 07 FFFFFF84 01 FFFFFF86
   4C 01 0D 73 74 72 69 6E 67 57 72 61 70 70 65 72
   14 04 FFFFFF86 4D FFFFFF86 50 10 04 FFFFFF86 12 FFFFFF86 4E 09 04 FFFFFF86 4F
   FFFFFF86 13 02 0A 52 69 63 68 53 74 72 69 6E 67 08 08
   FFFFFF82 63 FFFFFF86 4A FFFFFFC0 00 FFFFFF82 22 08 07 FFFFFF86 52 07 FFFFFF84 01 FFFFFF86
   53 01 0D 61 6E 79 32 73 74 72 69 6E 67 61 64 64
   14 04 FFFFFF86 54 FFFFFF86 57 10 04 FFFFFF86 12 FFFFFF86 55 09 04 FFFFFF86 56
   FFFFFF86 13 02 09 53 74 72 69 6E 67 41 64 64 08 07 FFFFFF82
   63 FFFFFF86 51 FFFFFFC0 00 2A 08 07 FFFFFF86 59 07 FFFFFF84 01 FFFFFF86 5A 01
   10 65 78 63 65 70 74 69 6F 6E 57 72 61 70 70 65
   72 14 04 FFFFFF86 5B FFFFFF86 5E 10 04 FFFFFF86 12 FFFFFF86 5C 09 04 FFFFFF86
   5D FFFFFF86 13 02 0D 52 69 63 68 45 78 63 65 70 74 69
   6F 6E 08 08 FFFFFF86 5F FFFFFF86 58 FFFFFFC0 00 FFFFFF86 60 01 03 65 78
   63 10 03 1C FFFFFF81 00 08 07 FFFFFF86 62 07 FFFFFF84 01 FFFFFF86 63 01
   11 6F 72 64 65 72 69 6E 67 54 6F 4F 72 64 65 72
   65 64 15 04 FFFFFF86 64 FFFFFF86 6A 14 04 FFFFFF86 65 FFFFFF86 70 16 04
   FFFFFF86 66 FFFFFF86 6B 10 05 06 FFFFFF86 67 FFFFFF86 69 09 03 FFFFFF86 68 02
   02 07 4F 72 64 65 72 65 64 10 03 23 FFFFFF86 6A 04 09
   25 FFFFFF86 61 FFFFFF84 FFFFFF80 FFFFFF80 FFFFFFC2 00 26 08 08 FFFFFF86 6C FFFFFF86 61 FFFFFFC0
   01 FFFFFF86 6D 01 03 6F 72 64 10 05 06 FFFFFF86 6E FFFFFF86 69 09
   03 FFFFFF86 6F 02 02 08 4F 72 64 65 72 69 6E 67 08 08
   FFFFFF82 63 FFFFFF86 61 FFFFFFC0 00 FFFFFF86 69 08 07 FFFFFF86 72 07 FFFFFF84 01 FFFFFF86
   73 01 0A 62 79 74 65 32 73 68 6F 72 74 14 03 3C
   FFFFFF86 74 08 07 FFFFFF82 63 FFFFFF86 71 FFFFFFC0 00 31 08 07 FFFFFF86 76 07
   FFFFFF84 01 FFFFFF86 77 01 08 62 79 74 65 32 69 6E 74 14 03
   48 FFFFFF86 78 08 07 FFFFFF82 63 FFFFFF86 75 FFFFFFC0 00 31 08 07 FFFFFF86 7A
   07 FFFFFF84 01 FFFFFF86 7B 01 09 62 79 74 65 32 6C 6F 6E 67
   14 03 4E FFFFFF86 7C 08 07 FFFFFF82 63 FFFFFF86 79 FFFFFFC0 00 31 08 07
   FFFFFF86 7E 07 FFFFFF84 01 FFFFFF86 7F 01 0A 62 79 74 65 32 66 6C
   6F 61 74 14 03 54 FFFFFF87 00 08 07 FFFFFF82 63 FFFFFF86 7D FFFFFFC0 00
   31 08 07 FFFFFF87 02 07 FFFFFF84 01 FFFFFF87 03 01 0B 62 79 74 65
   32 64 6F 75 62 6C 65 14 03 5A FFFFFF87 04 08 07 FFFFFF82 63
   FFFFFF87 01 FFFFFFC0 00 31 08 07 FFFFFF87 06 07 FFFFFF84 01 FFFFFF87 07 01 09
   73 68 6F 72 74 32 69 6E 74 14 03 48 FFFFFF87 08 08 07
   FFFFFF82 63 FFFFFF87 05 FFFFFFC0 00 3C 08 07 FFFFFF87 0A 07 FFFFFF84 01 FFFFFF87 0B
   01 0A 73 68 6F 72 74 32 6C 6F 6E 67 14 03 4E FFFFFF87
   0C 08 07 FFFFFF82 63 FFFFFF87 09 FFFFFFC0 00 3C 08 07 FFFFFF87 0E 07 FFFFFF84
   01 FFFFFF87 0F 01 0B 73 68 6F 72 74 32 66 6C 6F 61 74
   14 03 54 FFFFFF87 10 08 07 FFFFFF82 63 FFFFFF87 0D FFFFFFC0 00 3C 08 07
   FFFFFF87 12 07 FFFFFF84 01 FFFFFF87 13 01 0C 73 68 6F 72 74 32 64
   6F 75 62 6C 65 14 03 5A FFFFFF87 14 08 07 FFFFFF82 63 FFFFFF87 11
   FFFFFFC0 00 3C 08 07 FFFFFF87 16 07 FFFFFF84 01 FFFFFF87 17 01 08 63 68
   61 72 32 69 6E 74 14 03 48 FFFFFF87 18 08 07 FFFFFF82 63 FFFFFF87
   15 FFFFFFC0 00 42 08 07 FFFFFF87 1A 07 FFFFFF84 01 FFFFFF87 1B 01 09 63
   68 61 72 32 6C 6F 6E 67 14 03 4E FFFFFF87 1C 08 07 FFFFFF82
   63 FFFFFF87 19 FFFFFFC0 00 42 08 07 FFFFFF87 1E 07 FFFFFF84 01 FFFFFF87 1F 01
   0A 63 68 61 72 32 66 6C 6F 61 74 14 03 54 FFFFFF87 20
   08 07 FFFFFF82 63 FFFFFF87 1D FFFFFFC0 00 42 08 07 FFFFFF87 22 07 FFFFFF84 01
   FFFFFF87 23 01 0B 63 68 61 72 32 64 6F 75 62 6C 65 14
   03 5A FFFFFF87 24 08 07 FFFFFF82 63 FFFFFF87 21 FFFFFFC0 00 42 08 07 FFFFFF87
   26 07 FFFFFF84 01 FFFFFF87 27 01 08 69 6E 74 32 6C 6F 6E 67
   14 03 4E FFFFFF87 28 08 07 FFFFFF82 63 FFFFFF87 25 FFFFFFC0 00 48 08 07
   FFFFFF87 2A 07 FFFFFF84 01 FFFFFF87 2B 01 09 69 6E 74 32 66 6C 6F
   61 74 14 03 54 FFFFFF87 2C 08 07 FFFFFF82 63 FFFFFF87 29 FFFFFFC0 00 48
   08 07 FFFFFF87 2E 07 FFFFFF84 01 FFFFFF87 2F 01 0A 69 6E 74 32 64
   6F 75 62 6C 65 14 03 5A FFFFFF87 30 08 07 FFFFFF82 63 FFFFFF87 2D
   FFFFFFC0 00 48 08 07 FFFFFF87 32 07 FFFFFF84 01 FFFFFF87 33 01 0A 6C 6F
   6E 67 32 66 6C 6F 61 74 14 03 54 FFFFFF87 34 08 07 FFFFFF82
   63 FFFFFF87 31 FFFFFFC0 00 4E 08 07 FFFFFF87 36 07 FFFFFF84 01 FFFFFF87 37 01
   0B 6C 6F 6E 67 32 64 6F 75 62 6C 65 14 03 5A FFFFFF87
   38 08 07 FFFFFF82 63 FFFFFF87 35 FFFFFFC0 00 4E 08 07 FFFFFF87 3A 07 FFFFFF84
   01 FFFFFF87 3B 01 0C 66 6C 6F 61 74 32 64 6F 75 62 6C
   65 14 03 5A FFFFFF87 3C 08 07 FFFFFF82 63 FFFFFF87 39 FFFFFFC0 00 54 08
   07 FFFFFF87 3E 07 FFFFFF84 01 FFFFFF87 3F 01 09 62 79 74 65 32 42
   79 74 65 14 04 FFFFFF87 40 FFFFFF87 42 10 03 0B FFFFFF87 41 09 02
   33 0C 08 07 FFFFFF82 63 FFFFFF87 3D FFFFFFC0 00 31 08 07 FFFFFF87 44 07
   FFFFFF84 01 FFFFFF87 45 01 0B 73 68 6F 72 74 32 53 68 6F 72
   74 14 04 FFFFFF87 46 FFFFFF87 48 10 03 0B FFFFFF87 47 09 02 3E 0C
   08 07 FFFFFF82 63 FFFFFF87 43 FFFFFFC0 00 3C 08 07 FFFFFF87 4A 07 FFFFFF84 01
   FFFFFF87 4B 01 0E 63 68 61 72 32 43 68 61 72 61 63 74
   65 72 14 03 73 FFFFFF87 4C 08 07 FFFFFF82 63 FFFFFF87 49 FFFFFFC0 00 42
   08 07 FFFFFF87 4E 07 FFFFFF84 01 FFFFFF87 4F 01 0B 69 6E 74 32 49
   6E 74 65 67 65 72 14 03 6C FFFFFF87 50 08 07 FFFFFF82 63 FFFFFF87
   4D FFFFFFC0 00 48 08 07 FFFFFF87 52 07 FFFFFF84 01 FFFFFF87 53 01 09 6C
   6F 6E 67 32 4C 6F 6E 67 14 04 FFFFFF87 54 FFFFFF87 56 10 03
   0B FFFFFF87 55 09 02 50 0C 08 07 FFFFFF82 63 FFFFFF87 51 FFFFFFC0 00 4E
   08 07 FFFFFF87 58 07 FFFFFF84 01 FFFFFF87 59 01 0B 66 6C 6F 61 74
   32 46 6C 6F 61 74 14 04 FFFFFF87 5A FFFFFF87 5C 10 03 0B FFFFFF87
   5B 09 02 56 0C 08 07 FFFFFF82 63 FFFFFF87 57 FFFFFFC0 00 54 08 07
   FFFFFF87 5E 07 FFFFFF84 01 FFFFFF87 5F 01 0D 64 6F 75 62 6C 65 32
   44 6F 75 62 6C 65 14 04 FFFFFF87 60 FFFFFF87 62 10 03 0B FFFFFF87
   61 09 02 5C 0C 08 07 FFFFFF82 63 FFFFFF87 5D FFFFFFC0 00 5A 08 07
   FFFFFF87 64 07 FFFFFF84 01 FFFFFF87 65 01 0F 62 6F 6F 6C 65 61 6E
   32 42 6F 6F 6C 65 61 6E 14 04 FFFFFF87 66 FFFFFF87 68 10 03
   0B FFFFFF87 67 09 02 62 0C 08 07 FFFFFF82 63 FFFFFF87 63 FFFFFFC0 00 60
   08 07 FFFFFF87 6A 07 FFFFFF84 01 FFFFFF87 6B 01 11 72 69 63 68 53
   74 72 69 6E 67 32 53 74 72 69 6E 67 14 04 FFFFFF82 22
   FFFFFF87 6C 08 08 FFFFFF82 63 FFFFFF87 69 FFFFFFC0 00 FFFFFF86 4D 08 07 FFFFFF87 6E
   07 FFFFFF84 01 FFFFFF87 6F 01 11 73 65 71 54 6F 43 68 61 72
   53 65 71 75 65 6E 63 65 14 04 FFFFFF87 70 FFFFFF87 73 10 03
   0B FFFFFF87 71 09 03 FFFFFF87 72 0C 02 0C 43 68 61 72 53 65
   71 75 65 6E 63 65 08 08 FFFFFF85 45 FFFFFF87 6D FFFFFFC0 00 FFFFFF87 74
   10 05 FFFFFF87 75 FFFFFF87 76 42 0D 02 FFFFFF81 52 09 04 FFFFFF87 77 FFFFFF81
   52 02 06 56 65 63 74 6F 72 08 07 FFFFFF87 79 07 FFFFFF84 00
   FFFFFF87 7A 01 0D 63 75 72 72 65 6E 74 54 68 72 65 61
   64 15 02 FFFFFF87 7B 10 03 0B FFFFFF87 7C 09 03 FFFFFF87 7D 0C 02
   06 54 68 72 65 61 64 
  InnerClass: 
   public #362= #359 of #361; //Ensuring=class scala/Predef$Ensuring of class scala/Predef
   public #365= #364 of #361; //ArrowAssoc=class scala/Predef$ArrowAssoc of class scala/Predef
  minor version: 0
  major version: 49
  Constant pool:
const #1 = Asciz	SourceFile;
const #2 = Asciz	Predef.scala;
const #3 = Asciz	currentThread;
const #4 = Asciz	()Ljava/lang/Thread;;
const #5 = Asciz	Code;
const #6 = Asciz	scala/Predef$;
const #7 = class	#6;	//  scala/Predef$
const #8 = Asciz	MODULE$;
const #9 = Asciz	Lscala/Predef$;;
const #10 = NameAndType	#8:#9;//  MODULE$:Lscala/Predef$;
const #11 = Field	#7.#10;	//  scala/Predef$.MODULE$:Lscala/Predef$;
const #12 = NameAndType	#3:#4;//  currentThread:()Ljava/lang/Thread;
const #13 = Method	#7.#12;	//  scala/Predef$.currentThread:()Ljava/lang/Thread;
const #14 = Asciz	seqToCharSequence;
const #15 = Asciz	(Lscala/collection/Vector;)Ljava/lang/CharSequence;;
const #16 = NameAndType	#14:#15;//  seqToCharSequence:(Lscala/collection/Vector;)Ljava/lang/CharSequence;
const #17 = Method	#7.#16;	//  scala/Predef$.seqToCharSequence:(Lscala/collection/Vector;)Ljava/lang/CharSequence;
const #18 = Asciz	(Lscala/collection/Vector<Ljava/lang/Character;>;)Ljava/lang/CharSequence;;
const #19 = Asciz	Signature;
const #20 = Asciz	richString2String;
const #21 = Asciz	(Lscala/runtime/RichString;)Ljava/lang/String;;
const #22 = NameAndType	#20:#21;//  richString2String:(Lscala/runtime/RichString;)Ljava/lang/String;
const #23 = Method	#7.#22;	//  scala/Predef$.richString2String:(Lscala/runtime/RichString;)Ljava/lang/String;
const #24 = Asciz	boolean2Boolean;
const #25 = Asciz	(Z)Ljava/lang/Boolean;;
const #26 = NameAndType	#24:#25;//  boolean2Boolean:(Z)Ljava/lang/Boolean;
const #27 = Method	#7.#26;	//  scala/Predef$.boolean2Boolean:(Z)Ljava/lang/Boolean;
const #28 = Asciz	double2Double;
const #29 = Asciz	(D)Ljava/lang/Double;;
const #30 = NameAndType	#28:#29;//  double2Double:(D)Ljava/lang/Double;
const #31 = Method	#7.#30;	//  scala/Predef$.double2Double:(D)Ljava/lang/Double;
const #32 = Asciz	float2Float;
const #33 = Asciz	(F)Ljava/lang/Float;;
const #34 = NameAndType	#32:#33;//  float2Float:(F)Ljava/lang/Float;
const #35 = Method	#7.#34;	//  scala/Predef$.float2Float:(F)Ljava/lang/Float;
const #36 = Asciz	long2Long;
const #37 = Asciz	(J)Ljava/lang/Long;;
const #38 = NameAndType	#36:#37;//  long2Long:(J)Ljava/lang/Long;
const #39 = Method	#7.#38;	//  scala/Predef$.long2Long:(J)Ljava/lang/Long;
const #40 = Asciz	int2Integer;
const #41 = Asciz	(I)Ljava/lang/Integer;;
const #42 = NameAndType	#40:#41;//  int2Integer:(I)Ljava/lang/Integer;
const #43 = Method	#7.#42;	//  scala/Predef$.int2Integer:(I)Ljava/lang/Integer;
const #44 = Asciz	char2Character;
const #45 = Asciz	(C)Ljava/lang/Character;;
const #46 = NameAndType	#44:#45;//  char2Character:(C)Ljava/lang/Character;
const #47 = Method	#7.#46;	//  scala/Predef$.char2Character:(C)Ljava/lang/Character;
const #48 = Asciz	short2Short;
const #49 = Asciz	(S)Ljava/lang/Short;;
const #50 = NameAndType	#48:#49;//  short2Short:(S)Ljava/lang/Short;
const #51 = Method	#7.#50;	//  scala/Predef$.short2Short:(S)Ljava/lang/Short;
const #52 = Asciz	byte2Byte;
const #53 = Asciz	(B)Ljava/lang/Byte;;
const #54 = NameAndType	#52:#53;//  byte2Byte:(B)Ljava/lang/Byte;
const #55 = Method	#7.#54;	//  scala/Predef$.byte2Byte:(B)Ljava/lang/Byte;
const #56 = Asciz	float2double;
const #57 = Asciz	(F)D;
const #58 = NameAndType	#56:#57;//  float2double:(F)D
const #59 = Method	#7.#58;	//  scala/Predef$.float2double:(F)D
const #60 = Asciz	long2double;
const #61 = Asciz	(J)D;
const #62 = NameAndType	#60:#61;//  long2double:(J)D
const #63 = Method	#7.#62;	//  scala/Predef$.long2double:(J)D
const #64 = Asciz	long2float;
const #65 = Asciz	(J)F;
const #66 = NameAndType	#64:#65;//  long2float:(J)F
const #67 = Method	#7.#66;	//  scala/Predef$.long2float:(J)F
const #68 = Asciz	int2double;
const #69 = Asciz	(I)D;
const #70 = NameAndType	#68:#69;//  int2double:(I)D
const #71 = Method	#7.#70;	//  scala/Predef$.int2double:(I)D
const #72 = Asciz	int2float;
const #73 = Asciz	(I)F;
const #74 = NameAndType	#72:#73;//  int2float:(I)F
const #75 = Method	#7.#74;	//  scala/Predef$.int2float:(I)F
const #76 = Asciz	int2long;
const #77 = Asciz	(I)J;
const #78 = NameAndType	#76:#77;//  int2long:(I)J
const #79 = Method	#7.#78;	//  scala/Predef$.int2long:(I)J
const #80 = Asciz	char2double;
const #81 = Asciz	(C)D;
const #82 = NameAndType	#80:#81;//  char2double:(C)D
const #83 = Method	#7.#82;	//  scala/Predef$.char2double:(C)D
const #84 = Asciz	char2float;
const #85 = Asciz	(C)F;
const #86 = NameAndType	#84:#85;//  char2float:(C)F
const #87 = Method	#7.#86;	//  scala/Predef$.char2float:(C)F
const #88 = Asciz	char2long;
const #89 = Asciz	(C)J;
const #90 = NameAndType	#88:#89;//  char2long:(C)J
const #91 = Method	#7.#90;	//  scala/Predef$.char2long:(C)J
const #92 = Asciz	char2int;
const #93 = Asciz	(C)I;
const #94 = NameAndType	#92:#93;//  char2int:(C)I
const #95 = Method	#7.#94;	//  scala/Predef$.char2int:(C)I
const #96 = Asciz	short2double;
const #97 = Asciz	(S)D;
const #98 = NameAndType	#96:#97;//  short2double:(S)D
const #99 = Method	#7.#98;	//  scala/Predef$.short2double:(S)D
const #100 = Asciz	short2float;
const #101 = Asciz	(S)F;
const #102 = NameAndType	#100:#101;//  short2float:(S)F
const #103 = Method	#7.#102;	//  scala/Predef$.short2float:(S)F
const #104 = Asciz	short2long;
const #105 = Asciz	(S)J;
const #106 = NameAndType	#104:#105;//  short2long:(S)J
const #107 = Method	#7.#106;	//  scala/Predef$.short2long:(S)J
const #108 = Asciz	short2int;
const #109 = Asciz	(S)I;
const #110 = NameAndType	#108:#109;//  short2int:(S)I
const #111 = Method	#7.#110;	//  scala/Predef$.short2int:(S)I
const #112 = Asciz	byte2double;
const #113 = Asciz	(B)D;
const #114 = NameAndType	#112:#113;//  byte2double:(B)D
const #115 = Method	#7.#114;	//  scala/Predef$.byte2double:(B)D
const #116 = Asciz	byte2float;
const #117 = Asciz	(B)F;
const #118 = NameAndType	#116:#117;//  byte2float:(B)F
const #119 = Method	#7.#118;	//  scala/Predef$.byte2float:(B)F
const #120 = Asciz	byte2long;
const #121 = Asciz	(B)J;
const #122 = NameAndType	#120:#121;//  byte2long:(B)J
const #123 = Method	#7.#122;	//  scala/Predef$.byte2long:(B)J
const #124 = Asciz	byte2int;
const #125 = Asciz	(B)I;
const #126 = NameAndType	#124:#125;//  byte2int:(B)I
const #127 = Method	#7.#126;	//  scala/Predef$.byte2int:(B)I
const #128 = Asciz	byte2short;
const #129 = Asciz	(B)S;
const #130 = NameAndType	#128:#129;//  byte2short:(B)S
const #131 = Method	#7.#130;	//  scala/Predef$.byte2short:(B)S
const #132 = Asciz	orderingToOrdered;
const #133 = Asciz	(Ljava/lang/Object;Lscala/Ordering;)Lscala/Ordered;;
const #134 = NameAndType	#132:#133;//  orderingToOrdered:(Ljava/lang/Object;Lscala/Ordering;)Lscala/Ordered;
const #135 = Method	#7.#134;	//  scala/Predef$.orderingToOrdered:(Ljava/lang/Object;Lscala/Ordering;)Lscala/Ordered;
const #136 = Asciz	<T:Ljava/lang/Object;>(TT;Lscala/Ordering<TT;>;)Lscala/Ordered<TT;>;;
const #137 = Asciz	exceptionWrapper;
const #138 = Asciz	(Ljava/lang/Throwable;)Lscala/runtime/RichException;;
const #139 = NameAndType	#137:#138;//  exceptionWrapper:(Ljava/lang/Throwable;)Lscala/runtime/RichException;
const #140 = Method	#7.#139;	//  scala/Predef$.exceptionWrapper:(Ljava/lang/Throwable;)Lscala/runtime/RichException;
const #141 = Asciz	any2stringadd;
const #142 = Asciz	(Ljava/lang/Object;)Lscala/runtime/StringAdd;;
const #143 = NameAndType	#141:#142;//  any2stringadd:(Ljava/lang/Object;)Lscala/runtime/StringAdd;
const #144 = Method	#7.#143;	//  scala/Predef$.any2stringadd:(Ljava/lang/Object;)Lscala/runtime/StringAdd;
const #145 = Asciz	stringWrapper;
const #146 = Asciz	(Ljava/lang/String;)Lscala/runtime/RichString;;
const #147 = NameAndType	#145:#146;//  stringWrapper:(Ljava/lang/String;)Lscala/runtime/RichString;
const #148 = Method	#7.#147;	//  scala/Predef$.stringWrapper:(Ljava/lang/String;)Lscala/runtime/RichString;
const #149 = Asciz	booleanWrapper;
const #150 = Asciz	(Z)Lscala/runtime/RichBoolean;;
const #151 = NameAndType	#149:#150;//  booleanWrapper:(Z)Lscala/runtime/RichBoolean;
const #152 = Method	#7.#151;	//  scala/Predef$.booleanWrapper:(Z)Lscala/runtime/RichBoolean;
const #153 = Asciz	doubleWrapper;
const #154 = Asciz	(D)Lscala/runtime/RichDouble;;
const #155 = NameAndType	#153:#154;//  doubleWrapper:(D)Lscala/runtime/RichDouble;
const #156 = Method	#7.#155;	//  scala/Predef$.doubleWrapper:(D)Lscala/runtime/RichDouble;
const #157 = Asciz	floatWrapper;
const #158 = Asciz	(F)Lscala/runtime/RichFloat;;
const #159 = NameAndType	#157:#158;//  floatWrapper:(F)Lscala/runtime/RichFloat;
const #160 = Method	#7.#159;	//  scala/Predef$.floatWrapper:(F)Lscala/runtime/RichFloat;
const #161 = Asciz	longWrapper;
const #162 = Asciz	(J)Lscala/runtime/RichLong;;
const #163 = NameAndType	#161:#162;//  longWrapper:(J)Lscala/runtime/RichLong;
const #164 = Method	#7.#163;	//  scala/Predef$.longWrapper:(J)Lscala/runtime/RichLong;
const #165 = Asciz	charWrapper;
const #166 = Asciz	(C)Lscala/runtime/RichChar;;
const #167 = NameAndType	#165:#166;//  charWrapper:(C)Lscala/runtime/RichChar;
const #168 = Method	#7.#167;	//  scala/Predef$.charWrapper:(C)Lscala/runtime/RichChar;
const #169 = Asciz	intWrapper;
const #170 = Asciz	(I)Lscala/runtime/RichInt;;
const #171 = NameAndType	#169:#170;//  intWrapper:(I)Lscala/runtime/RichInt;
const #172 = Method	#7.#171;	//  scala/Predef$.intWrapper:(I)Lscala/runtime/RichInt;
const #173 = Asciz	shortWrapper;
const #174 = Asciz	(S)Lscala/runtime/RichShort;;
const #175 = NameAndType	#173:#174;//  shortWrapper:(S)Lscala/runtime/RichShort;
const #176 = Method	#7.#175;	//  scala/Predef$.shortWrapper:(S)Lscala/runtime/RichShort;
const #177 = Asciz	byteWrapper;
const #178 = Asciz	(B)Lscala/runtime/RichByte;;
const #179 = NameAndType	#177:#178;//  byteWrapper:(B)Lscala/runtime/RichByte;
const #180 = Method	#7.#179;	//  scala/Predef$.byteWrapper:(B)Lscala/runtime/RichByte;
const #181 = Asciz	identity;
const #182 = Asciz	(Ljava/lang/Object;)Ljava/lang/Object;;
const #183 = NameAndType	#181:#182;//  identity:(Ljava/lang/Object;)Ljava/lang/Object;
const #184 = Method	#7.#183;	//  scala/Predef$.identity:(Ljava/lang/Object;)Ljava/lang/Object;
const #185 = Asciz	<A:Ljava/lang/Object;>(TA;)TA;;
const #186 = Asciz	readf3;
const #187 = Asciz	(Ljava/lang/String;)Lscala/Tuple3;;
const #188 = NameAndType	#186:#187;//  readf3:(Ljava/lang/String;)Lscala/Tuple3;
const #189 = Method	#7.#188;	//  scala/Predef$.readf3:(Ljava/lang/String;)Lscala/Tuple3;
const #190 = Asciz	(Ljava/lang/String;)Lscala/Tuple3<Ljava/lang/Object;Ljava/lang/Object;Ljava/lang/Object;>;;
const #191 = Asciz	readf2;
const #192 = Asciz	(Ljava/lang/String;)Lscala/Tuple2;;
const #193 = NameAndType	#191:#192;//  readf2:(Ljava/lang/String;)Lscala/Tuple2;
const #194 = Method	#7.#193;	//  scala/Predef$.readf2:(Ljava/lang/String;)Lscala/Tuple2;
const #195 = Asciz	(Ljava/lang/String;)Lscala/Tuple2<Ljava/lang/Object;Ljava/lang/Object;>;;
const #196 = Asciz	readf1;
const #197 = Asciz	(Ljava/lang/String;)Ljava/lang/Object;;
const #198 = NameAndType	#196:#197;//  readf1:(Ljava/lang/String;)Ljava/lang/Object;
const #199 = Method	#7.#198;	//  scala/Predef$.readf1:(Ljava/lang/String;)Ljava/lang/Object;
const #200 = Asciz	readf;
const #201 = Asciz	(Ljava/lang/String;)Lscala/collection/immutable/List;;
const #202 = NameAndType	#200:#201;//  readf:(Ljava/lang/String;)Lscala/collection/immutable/List;
const #203 = Method	#7.#202;	//  scala/Predef$.readf:(Ljava/lang/String;)Lscala/collection/immutable/List;
const #204 = Asciz	(Ljava/lang/String;)Lscala/collection/immutable/List<Ljava/lang/Object;>;;
const #205 = Asciz	readDouble;
const #206 = Asciz	()D;
const #207 = NameAndType	#205:#206;//  readDouble:()D
const #208 = Method	#7.#207;	//  scala/Predef$.readDouble:()D
const #209 = Asciz	readFloat;
const #210 = Asciz	()F;
const #211 = NameAndType	#209:#210;//  readFloat:()F
const #212 = Method	#7.#211;	//  scala/Predef$.readFloat:()F
const #213 = Asciz	readLong;
const #214 = Asciz	()J;
const #215 = NameAndType	#213:#214;//  readLong:()J
const #216 = Method	#7.#215;	//  scala/Predef$.readLong:()J
const #217 = Asciz	readInt;
const #218 = Asciz	()I;
const #219 = NameAndType	#217:#218;//  readInt:()I
const #220 = Method	#7.#219;	//  scala/Predef$.readInt:()I
const #221 = Asciz	readChar;
const #222 = Asciz	()C;
const #223 = NameAndType	#221:#222;//  readChar:()C
const #224 = Method	#7.#223;	//  scala/Predef$.readChar:()C
const #225 = Asciz	readShort;
const #226 = Asciz	()S;
const #227 = NameAndType	#225:#226;//  readShort:()S
const #228 = Method	#7.#227;	//  scala/Predef$.readShort:()S
const #229 = Asciz	readByte;
const #230 = Asciz	()B;
const #231 = NameAndType	#229:#230;//  readByte:()B
const #232 = Method	#7.#231;	//  scala/Predef$.readByte:()B
const #233 = Asciz	readBoolean;
const #234 = Asciz	()Z;
const #235 = NameAndType	#233:#234;//  readBoolean:()Z
const #236 = Method	#7.#235;	//  scala/Predef$.readBoolean:()Z
const #237 = Asciz	readLine;
const #238 = Asciz	(Ljava/lang/String;Lscala/collection/Sequence;)Ljava/lang/String;;
const #239 = NameAndType	#237:#238;//  readLine:(Ljava/lang/String;Lscala/collection/Sequence;)Ljava/lang/String;
const #240 = Method	#7.#239;	//  scala/Predef$.readLine:(Ljava/lang/String;Lscala/collection/Sequence;)Ljava/lang/String;
const #241 = Asciz	(Ljava/lang/String;Lscala/collection/Sequence<Ljava/lang/Object;>;)Ljava/lang/String;;
const #242 = Asciz	()Ljava/lang/String;;
const #243 = NameAndType	#237:#242;//  readLine:()Ljava/lang/String;
const #244 = Method	#7.#243;	//  scala/Predef$.readLine:()Ljava/lang/String;
const #245 = Asciz	format;
const #246 = NameAndType	#245:#238;//  format:(Ljava/lang/String;Lscala/collection/Sequence;)Ljava/lang/String;
const #247 = Method	#7.#246;	//  scala/Predef$.format:(Ljava/lang/String;Lscala/collection/Sequence;)Ljava/lang/String;
const #248 = Asciz	printf;
const #249 = Asciz	(Ljava/lang/String;Lscala/collection/Sequence;)V;
const #250 = NameAndType	#248:#249;//  printf:(Ljava/lang/String;Lscala/collection/Sequence;)V
const #251 = Method	#7.#250;	//  scala/Predef$.printf:(Ljava/lang/String;Lscala/collection/Sequence;)V
const #252 = Asciz	(Ljava/lang/String;Lscala/collection/Sequence<Ljava/lang/Object;>;)V;
const #253 = Asciz	println;
const #254 = Asciz	(Ljava/lang/Object;)V;
const #255 = NameAndType	#253:#254;//  println:(Ljava/lang/Object;)V
const #256 = Method	#7.#255;	//  scala/Predef$.println:(Ljava/lang/Object;)V
const #257 = Asciz	()V;
const #258 = NameAndType	#253:#257;//  println:()V
const #259 = Method	#7.#258;	//  scala/Predef$.println:()V
const #260 = Asciz	print;
const #261 = NameAndType	#260:#254;//  print:(Ljava/lang/Object;)V
const #262 = Method	#7.#261;	//  scala/Predef$.print:(Ljava/lang/Object;)V
const #263 = Asciz	Tuple;
const #264 = Asciz	(Ljava/lang/Object;Ljava/lang/Object;Ljava/lang/Object;Ljava/lang/Object;Ljava/lang/Object;Ljava/lang/Object;Ljava/lang/Object;Ljava/lang/Object;Ljava/lang/Object;)Lscala/Tuple9;;
const #265 = NameAndType	#263:#264;//  Tuple:(Ljava/lang/Object;Ljava/lang/Object;Ljava/lang/Object;Ljava/lang/Object;Ljava/lang/Object;Ljava/lang/Object;Ljava/lang/Object;Ljava/lang/Object;Ljava/lang/Object;)Lscala/Tuple9;
const #266 = Method	#7.#265;	//  scala/Predef$.Tuple:(Ljava/lang/Object;Ljava/lang/Object;Ljava/lang/Object;Ljava/lang/Object;Ljava/lang/Object;Ljava/lang/Object;Ljava/lang/Object;Ljava/lang/Object;Ljava/lang/Object;)Lscala/Tuple9;
const #267 = Asciz	<A1:Ljava/lang/Object;A2:Ljava/lang/Object;A3:Ljava/lang/Object;A4:Ljava/lang/Object;A5:Ljava/lang/Object;A6:Ljava/lang/Object;A7:Ljava/lang/Object;A8:Ljava/lang/Object;A9:Ljava/lang/Object;>(TA1;TA2;TA3;TA4;TA5;TA6;TA7;TA8;TA9;)Lscala/Tuple9<TA1;TA2;TA3;TA4;TA5;TA6;TA7;TA8;TA9;>;;
const #268 = Asciz	(Ljava/lang/Object;Ljava/lang/Object;Ljava/lang/Object;Ljava/lang/Object;Ljava/lang/Object;Ljava/lang/Object;Ljava/lang/Object;Ljava/lang/Object;)Lscala/Tuple8;;
const #269 = NameAndType	#263:#268;//  Tuple:(Ljava/lang/Object;Ljava/lang/Object;Ljava/lang/Object;Ljava/lang/Object;Ljava/lang/Object;Ljava/lang/Object;Ljava/lang/Object;Ljava/lang/Object;)Lscala/Tuple8;
const #270 = Method	#7.#269;	//  scala/Predef$.Tuple:(Ljava/lang/Object;Ljava/lang/Object;Ljava/lang/Object;Ljava/lang/Object;Ljava/lang/Object;Ljava/lang/Object;Ljava/lang/Object;Ljava/lang/Object;)Lscala/Tuple8;
const #271 = Asciz	<A1:Ljava/lang/Object;A2:Ljava/lang/Object;A3:Ljava/lang/Object;A4:Ljava/lang/Object;A5:Ljava/lang/Object;A6:Ljava/lang/Object;A7:Ljava/lang/Object;A8:Ljava/lang/Object;>(TA1;TA2;TA3;TA4;TA5;TA6;TA7;TA8;)Lscala/Tuple8<TA1;TA2;TA3;TA4;TA5;TA6;TA7;TA8;>;;
const #272 = Asciz	(Ljava/lang/Object;Ljava/lang/Object;Ljava/lang/Object;Ljava/lang/Object;Ljava/lang/Object;Ljava/lang/Object;Ljava/lang/Object;)Lscala/Tuple7;;
const #273 = NameAndType	#263:#272;//  Tuple:(Ljava/lang/Object;Ljava/lang/Object;Ljava/lang/Object;Ljava/lang/Object;Ljava/lang/Object;Ljava/lang/Object;Ljava/lang/Object;)Lscala/Tuple7;
const #274 = Method	#7.#273;	//  scala/Predef$.Tuple:(Ljava/lang/Object;Ljava/lang/Object;Ljava/lang/Object;Ljava/lang/Object;Ljava/lang/Object;Ljava/lang/Object;Ljava/lang/Object;)Lscala/Tuple7;
const #275 = Asciz	<A1:Ljava/lang/Object;A2:Ljava/lang/Object;A3:Ljava/lang/Object;A4:Ljava/lang/Object;A5:Ljava/lang/Object;A6:Ljava/lang/Object;A7:Ljava/lang/Object;>(TA1;TA2;TA3;TA4;TA5;TA6;TA7;)Lscala/Tuple7<TA1;TA2;TA3;TA4;TA5;TA6;TA7;>;;
const #276 = Asciz	(Ljava/lang/Object;Ljava/lang/Object;Ljava/lang/Object;Ljava/lang/Object;Ljava/lang/Object;Ljava/lang/Object;)Lscala/Tuple6;;
const #277 = NameAndType	#263:#276;//  Tuple:(Ljava/lang/Object;Ljava/lang/Object;Ljava/lang/Object;Ljava/lang/Object;Ljava/lang/Object;Ljava/lang/Object;)Lscala/Tuple6;
const #278 = Method	#7.#277;	//  scala/Predef$.Tuple:(Ljava/lang/Object;Ljava/lang/Object;Ljava/lang/Object;Ljava/lang/Object;Ljava/lang/Object;Ljava/lang/Object;)Lscala/Tuple6;
const #279 = Asciz	<A1:Ljava/lang/Object;A2:Ljava/lang/Object;A3:Ljava/lang/Object;A4:Ljava/lang/Object;A5:Ljava/lang/Object;A6:Ljava/lang/Object;>(TA1;TA2;TA3;TA4;TA5;TA6;)Lscala/Tuple6<TA1;TA2;TA3;TA4;TA5;TA6;>;;
const #280 = Asciz	(Ljava/lang/Object;Ljava/lang/Object;Ljava/lang/Object;Ljava/lang/Object;Ljava/lang/Object;)Lscala/Tuple5;;
const #281 = NameAndType	#263:#280;//  Tuple:(Ljava/lang/Object;Ljava/lang/Object;Ljava/lang/Object;Ljava/lang/Object;Ljava/lang/Object;)Lscala/Tuple5;
const #282 = Method	#7.#281;	//  scala/Predef$.Tuple:(Ljava/lang/Object;Ljava/lang/Object;Ljava/lang/Object;Ljava/lang/Object;Ljava/lang/Object;)Lscala/Tuple5;
const #283 = Asciz	<A1:Ljava/lang/Object;A2:Ljava/lang/Object;A3:Ljava/lang/Object;A4:Ljava/lang/Object;A5:Ljava/lang/Object;>(TA1;TA2;TA3;TA4;TA5;)Lscala/Tuple5<TA1;TA2;TA3;TA4;TA5;>;;
const #284 = Asciz	(Ljava/lang/Object;Ljava/lang/Object;Ljava/lang/Object;Ljava/lang/Object;)Lscala/Tuple4;;
const #285 = NameAndType	#263:#284;//  Tuple:(Ljava/lang/Object;Ljava/lang/Object;Ljava/lang/Object;Ljava/lang/Object;)Lscala/Tuple4;
const #286 = Method	#7.#285;	//  scala/Predef$.Tuple:(Ljava/lang/Object;Ljava/lang/Object;Ljava/lang/Object;Ljava/lang/Object;)Lscala/Tuple4;
const #287 = Asciz	<A1:Ljava/lang/Object;A2:Ljava/lang/Object;A3:Ljava/lang/Object;A4:Ljava/lang/Object;>(TA1;TA2;TA3;TA4;)Lscala/Tuple4<TA1;TA2;TA3;TA4;>;;
const #288 = Asciz	(Ljava/lang/Object;Ljava/lang/Object;Ljava/lang/Object;)Lscala/Tuple3;;
const #289 = NameAndType	#263:#288;//  Tuple:(Ljava/lang/Object;Ljava/lang/Object;Ljava/lang/Object;)Lscala/Tuple3;
const #290 = Method	#7.#289;	//  scala/Predef$.Tuple:(Ljava/lang/Object;Ljava/lang/Object;Ljava/lang/Object;)Lscala/Tuple3;
const #291 = Asciz	<A1:Ljava/lang/Object;A2:Ljava/lang/Object;A3:Ljava/lang/Object;>(TA1;TA2;TA3;)Lscala/Tuple3<TA1;TA2;TA3;>;;
const #292 = Asciz	(Ljava/lang/Object;Ljava/lang/Object;)Lscala/Tuple2;;
const #293 = NameAndType	#263:#292;//  Tuple:(Ljava/lang/Object;Ljava/lang/Object;)Lscala/Tuple2;
const #294 = Method	#7.#293;	//  scala/Predef$.Tuple:(Ljava/lang/Object;Ljava/lang/Object;)Lscala/Tuple2;
const #295 = Asciz	<A1:Ljava/lang/Object;A2:Ljava/lang/Object;>(TA1;TA2;)Lscala/Tuple2<TA1;TA2;>;;
const #296 = Asciz	(Ljava/lang/Object;)Lscala/Tuple1;;
const #297 = NameAndType	#263:#296;//  Tuple:(Ljava/lang/Object;)Lscala/Tuple1;
const #298 = Method	#7.#297;	//  scala/Predef$.Tuple:(Ljava/lang/Object;)Lscala/Tuple1;
const #299 = Asciz	<A1:Ljava/lang/Object;>(TA1;)Lscala/Tuple1<TA1;>;;
const #300 = Asciz	any2ArrowAssoc;
const #301 = Asciz	(Ljava/lang/Object;)Lscala/Predef$ArrowAssoc;;
const #302 = NameAndType	#300:#301;//  any2ArrowAssoc:(Ljava/lang/Object;)Lscala/Predef$ArrowAssoc;
const #303 = Method	#7.#302;	//  scala/Predef$.any2ArrowAssoc:(Ljava/lang/Object;)Lscala/Predef$ArrowAssoc;
const #304 = Asciz	<A:Ljava/lang/Object;>(TA;)Lscala/Predef$ArrowAssoc<TA;>;;
const #305 = Asciz	any2Ensuring;
const #306 = Asciz	(Ljava/lang/Object;)Lscala/Predef$Ensuring;;
const #307 = NameAndType	#305:#306;//  any2Ensuring:(Ljava/lang/Object;)Lscala/Predef$Ensuring;
const #308 = Method	#7.#307;	//  scala/Predef$.any2Ensuring:(Ljava/lang/Object;)Lscala/Predef$Ensuring;
const #309 = Asciz	<A:Ljava/lang/Object;>(TA;)Lscala/Predef$Ensuring<TA;>;;
const #310 = Asciz	require;
const #311 = Asciz	(ZLscala/Function0;)V;
const #312 = NameAndType	#310:#311;//  require:(ZLscala/Function0;)V
const #313 = Method	#7.#312;	//  scala/Predef$.require:(ZLscala/Function0;)V
const #314 = Asciz	(ZLscala/Function0<Ljava/lang/Object;>;)V;
const #315 = Asciz	(Z)V;
const #316 = NameAndType	#310:#315;//  require:(Z)V
const #317 = Method	#7.#316;	//  scala/Predef$.require:(Z)V
const #318 = Asciz	assume;
const #319 = NameAndType	#318:#311;//  assume:(ZLscala/Function0;)V
const #320 = Method	#7.#319;	//  scala/Predef$.assume:(ZLscala/Function0;)V
const #321 = NameAndType	#318:#315;//  assume:(Z)V
const #322 = Method	#7.#321;	//  scala/Predef$.assume:(Z)V
const #323 = Asciz	assert;
const #324 = NameAndType	#323:#311;//  assert:(ZLscala/Function0;)V
const #325 = Method	#7.#324;	//  scala/Predef$.assert:(ZLscala/Function0;)V
const #326 = NameAndType	#323:#315;//  assert:(Z)V
const #327 = Method	#7.#326;	//  scala/Predef$.assert:(Z)V
const #328 = Asciz	exit;
const #329 = Asciz	(I)Lscala/runtime/Nothing$;;
const #330 = NameAndType	#328:#329;//  exit:(I)Lscala/runtime/Nothing$;
const #331 = Method	#7.#330;	//  scala/Predef$.exit:(I)Lscala/runtime/Nothing$;
const #332 = Asciz	()Lscala/runtime/Nothing$;;
const #333 = NameAndType	#328:#332;//  exit:()Lscala/runtime/Nothing$;
const #334 = Method	#7.#333;	//  scala/Predef$.exit:()Lscala/runtime/Nothing$;
const #335 = Asciz	error;
const #336 = Asciz	(Ljava/lang/String;)Lscala/runtime/Nothing$;;
const #337 = NameAndType	#335:#336;//  error:(Ljava/lang/String;)Lscala/runtime/Nothing$;
const #338 = Method	#7.#337;	//  scala/Predef$.error:(Ljava/lang/String;)Lscala/runtime/Nothing$;
const #339 = Asciz	Set;
const #340 = Asciz	()Lscala/collection/immutable/Set$;;
const #341 = NameAndType	#339:#340;//  Set:()Lscala/collection/immutable/Set$;
const #342 = Method	#7.#341;	//  scala/Predef$.Set:()Lscala/collection/immutable/Set$;
const #343 = Asciz	Map;
const #344 = Asciz	()Lscala/collection/immutable/Map$;;
const #345 = NameAndType	#343:#344;//  Map:()Lscala/collection/immutable/Map$;
const #346 = Method	#7.#345;	//  scala/Predef$.Map:()Lscala/collection/immutable/Map$;
const #347 = Asciz	$scope;
const #348 = Asciz	()Lscala/xml/TopScope$;;
const #349 = NameAndType	#347:#348;//  $scope:()Lscala/xml/TopScope$;
const #350 = Method	#7.#349;	//  scala/Predef$.$scope:()Lscala/xml/TopScope$;
const #351 = Asciz	classOf;
const #352 = Asciz	()Ljava/lang/Class;;
const #353 = NameAndType	#351:#352;//  classOf:()Ljava/lang/Class;
const #354 = Method	#7.#353;	//  scala/Predef$.classOf:()Ljava/lang/Class;
const #355 = Asciz	<T:Ljava/lang/Object;>()Ljava/lang/Class<TT;>;;
const #356 = Asciz	ScalaSig;
const #357 = Asciz	InnerClasses;
const #358 = Asciz	scala/Predef$Ensuring;
const #359 = class	#358;	//  scala/Predef$Ensuring
const #360 = Asciz	scala/Predef;
const #361 = class	#360;	//  scala/Predef
const #362 = Asciz	Ensuring;
const #363 = Asciz	scala/Predef$ArrowAssoc;
const #364 = class	#363;	//  scala/Predef$ArrowAssoc
const #365 = Asciz	ArrowAssoc;
const #366 = Asciz	java/lang/Object;
const #367 = class	#366;	//  java/lang/Object

{
public static final java.lang.Thread currentThread();
  Code:
   Stack=1, Locals=0, Args_size=0
   0:	getstatic	#11; //Field scala/Predef$.MODULE$:Lscala/Predef$;
   3:	invokevirtual	#13; //Method scala/Predef$.currentThread:()Ljava/lang/Thread;
   6:	areturn

public static final java.lang.CharSequence seqToCharSequence(scala.collection.Vector);
  Code:
   Stack=2, Locals=1, Args_size=1
   0:	getstatic	#11; //Field scala/Predef$.MODULE$:Lscala/Predef$;
   3:	aload_0
   4:	invokevirtual	#17; //Method scala/Predef$.seqToCharSequence:(Lscala/collection/Vector;)Ljava/lang/CharSequence;
   7:	areturn
  Signature: length = 0x2
   00 12 

public static final java.lang.String richString2String(scala.runtime.RichString);
  Code:
   Stack=2, Locals=1, Args_size=1
   0:	getstatic	#11; //Field scala/Predef$.MODULE$:Lscala/Predef$;
   3:	aload_0
   4:	invokevirtual	#23; //Method scala/Predef$.richString2String:(Lscala/runtime/RichString;)Ljava/lang/String;
   7:	areturn

public static final java.lang.Boolean boolean2Boolean(boolean);
  Code:
   Stack=2, Locals=1, Args_size=1
   0:	getstatic	#11; //Field scala/Predef$.MODULE$:Lscala/Predef$;
   3:	iload_0
   4:	invokevirtual	#27; //Method scala/Predef$.boolean2Boolean:(Z)Ljava/lang/Boolean;
   7:	areturn

public static final java.lang.Double double2Double(double);
  Code:
   Stack=3, Locals=2, Args_size=1
   0:	getstatic	#11; //Field scala/Predef$.MODULE$:Lscala/Predef$;
   3:	dload_0
   4:	invokevirtual	#31; //Method scala/Predef$.double2Double:(D)Ljava/lang/Double;
   7:	areturn

public static final java.lang.Float float2Float(float);
  Code:
   Stack=2, Locals=1, Args_size=1
   0:	getstatic	#11; //Field scala/Predef$.MODULE$:Lscala/Predef$;
   3:	fload_0
   4:	invokevirtual	#35; //Method scala/Predef$.float2Float:(F)Ljava/lang/Float;
   7:	areturn

public static final java.lang.Long long2Long(long);
  Code:
   Stack=3, Locals=2, Args_size=1
   0:	getstatic	#11; //Field scala/Predef$.MODULE$:Lscala/Predef$;
   3:	lload_0
   4:	invokevirtual	#39; //Method scala/Predef$.long2Long:(J)Ljava/lang/Long;
   7:	areturn

public static final java.lang.Integer int2Integer(int);
  Code:
   Stack=2, Locals=1, Args_size=1
   0:	getstatic	#11; //Field scala/Predef$.MODULE$:Lscala/Predef$;
   3:	iload_0
   4:	invokevirtual	#43; //Method scala/Predef$.int2Integer:(I)Ljava/lang/Integer;
   7:	areturn

public static final java.lang.Character char2Character(char);
  Code:
   Stack=2, Locals=1, Args_size=1
   0:	getstatic	#11; //Field scala/Predef$.MODULE$:Lscala/Predef$;
   3:	iload_0
   4:	invokevirtual	#47; //Method scala/Predef$.char2Character:(C)Ljava/lang/Character;
   7:	areturn

public static final java.lang.Short short2Short(short);
  Code:
   Stack=2, Locals=1, Args_size=1
   0:	getstatic	#11; //Field scala/Predef$.MODULE$:Lscala/Predef$;
   3:	iload_0
   4:	invokevirtual	#51; //Method scala/Predef$.short2Short:(S)Ljava/lang/Short;
   7:	areturn

public static final java.lang.Byte byte2Byte(byte);
  Code:
   Stack=2, Locals=1, Args_size=1
   0:	getstatic	#11; //Field scala/Predef$.MODULE$:Lscala/Predef$;
   3:	iload_0
   4:	invokevirtual	#55; //Method scala/Predef$.byte2Byte:(B)Ljava/lang/Byte;
   7:	areturn

public static final double float2double(float);
  Code:
   Stack=2, Locals=1, Args_size=1
   0:	getstatic	#11; //Field scala/Predef$.MODULE$:Lscala/Predef$;
   3:	fload_0
   4:	invokevirtual	#59; //Method scala/Predef$.float2double:(F)D
   7:	dreturn

public static final double long2double(long);
  Code:
   Stack=3, Locals=2, Args_size=1
   0:	getstatic	#11; //Field scala/Predef$.MODULE$:Lscala/Predef$;
   3:	lload_0
   4:	invokevirtual	#63; //Method scala/Predef$.long2double:(J)D
   7:	dreturn

public static final float long2float(long);
  Code:
   Stack=3, Locals=2, Args_size=1
   0:	getstatic	#11; //Field scala/Predef$.MODULE$:Lscala/Predef$;
   3:	lload_0
   4:	invokevirtual	#67; //Method scala/Predef$.long2float:(J)F
   7:	freturn

public static final double int2double(int);
  Code:
   Stack=2, Locals=1, Args_size=1
   0:	getstatic	#11; //Field scala/Predef$.MODULE$:Lscala/Predef$;
   3:	iload_0
   4:	invokevirtual	#71; //Method scala/Predef$.int2double:(I)D
   7:	dreturn

public static final float int2float(int);
  Code:
   Stack=2, Locals=1, Args_size=1
   0:	getstatic	#11; //Field scala/Predef$.MODULE$:Lscala/Predef$;
   3:	iload_0
   4:	invokevirtual	#75; //Method scala/Predef$.int2float:(I)F
   7:	freturn

public static final long int2long(int);
  Code:
   Stack=2, Locals=1, Args_size=1
   0:	getstatic	#11; //Field scala/Predef$.MODULE$:Lscala/Predef$;
   3:	iload_0
   4:	invokevirtual	#79; //Method scala/Predef$.int2long:(I)J
   7:	lreturn

public static final double char2double(char);
  Code:
   Stack=2, Locals=1, Args_size=1
   0:	getstatic	#11; //Field scala/Predef$.MODULE$:Lscala/Predef$;
   3:	iload_0
   4:	invokevirtual	#83; //Method scala/Predef$.char2double:(C)D
   7:	dreturn

public static final float char2float(char);
  Code:
   Stack=2, Locals=1, Args_size=1
   0:	getstatic	#11; //Field scala/Predef$.MODULE$:Lscala/Predef$;
   3:	iload_0
   4:	invokevirtual	#87; //Method scala/Predef$.char2float:(C)F
   7:	freturn

public static final long char2long(char);
  Code:
   Stack=2, Locals=1, Args_size=1
   0:	getstatic	#11; //Field scala/Predef$.MODULE$:Lscala/Predef$;
   3:	iload_0
   4:	invokevirtual	#91; //Method scala/Predef$.char2long:(C)J
   7:	lreturn

public static final int char2int(char);
  Code:
   Stack=2, Locals=1, Args_size=1
   0:	getstatic	#11; //Field scala/Predef$.MODULE$:Lscala/Predef$;
   3:	iload_0
   4:	invokevirtual	#95; //Method scala/Predef$.char2int:(C)I
   7:	ireturn

public static final double short2double(short);
  Code:
   Stack=2, Locals=1, Args_size=1
   0:	getstatic	#11; //Field scala/Predef$.MODULE$:Lscala/Predef$;
   3:	iload_0
   4:	invokevirtual	#99; //Method scala/Predef$.short2double:(S)D
   7:	dreturn

public static final float short2float(short);
  Code:
   Stack=2, Locals=1, Args_size=1
   0:	getstatic	#11; //Field scala/Predef$.MODULE$:Lscala/Predef$;
   3:	iload_0
   4:	invokevirtual	#103; //Method scala/Predef$.short2float:(S)F
   7:	freturn

public static final long short2long(short);
  Code:
   Stack=2, Locals=1, Args_size=1
   0:	getstatic	#11; //Field scala/Predef$.MODULE$:Lscala/Predef$;
   3:	iload_0
   4:	invokevirtual	#107; //Method scala/Predef$.short2long:(S)J
   7:	lreturn

public static final int short2int(short);
  Code:
   Stack=2, Locals=1, Args_size=1
   0:	getstatic	#11; //Field scala/Predef$.MODULE$:Lscala/Predef$;
   3:	iload_0
   4:	invokevirtual	#111; //Method scala/Predef$.short2int:(S)I
   7:	ireturn

public static final double byte2double(byte);
  Code:
   Stack=2, Locals=1, Args_size=1
   0:	getstatic	#11; //Field scala/Predef$.MODULE$:Lscala/Predef$;
   3:	iload_0
   4:	invokevirtual	#115; //Method scala/Predef$.byte2double:(B)D
   7:	dreturn

public static final float byte2float(byte);
  Code:
   Stack=2, Locals=1, Args_size=1
   0:	getstatic	#11; //Field scala/Predef$.MODULE$:Lscala/Predef$;
   3:	iload_0
   4:	invokevirtual	#119; //Method scala/Predef$.byte2float:(B)F
   7:	freturn

public static final long byte2long(byte);
  Code:
   Stack=2, Locals=1, Args_size=1
   0:	getstatic	#11; //Field scala/Predef$.MODULE$:Lscala/Predef$;
   3:	iload_0
   4:	invokevirtual	#123; //Method scala/Predef$.byte2long:(B)J
   7:	lreturn

public static final int byte2int(byte);
  Code:
   Stack=2, Locals=1, Args_size=1
   0:	getstatic	#11; //Field scala/Predef$.MODULE$:Lscala/Predef$;
   3:	iload_0
   4:	invokevirtual	#127; //Method scala/Predef$.byte2int:(B)I
   7:	ireturn

public static final short byte2short(byte);
  Code:
   Stack=2, Locals=1, Args_size=1
   0:	getstatic	#11; //Field scala/Predef$.MODULE$:Lscala/Predef$;
   3:	iload_0
   4:	invokevirtual	#131; //Method scala/Predef$.byte2short:(B)S
   7:	ireturn

public static final scala.Ordered orderingToOrdered(java.lang.Object, scala.Ordering);
  Code:
   Stack=3, Locals=2, Args_size=2
   0:	getstatic	#11; //Field scala/Predef$.MODULE$:Lscala/Predef$;
   3:	aload_0
   4:	aload_1
   5:	invokevirtual	#135; //Method scala/Predef$.orderingToOrdered:(Ljava/lang/Object;Lscala/Ordering;)Lscala/Ordered;
   8:	areturn
  Signature: length = 0x2
   00 FFFFFF88 

public static final scala.runtime.RichException exceptionWrapper(java.lang.Throwable);
  Code:
   Stack=2, Locals=1, Args_size=1
   0:	getstatic	#11; //Field scala/Predef$.MODULE$:Lscala/Predef$;
   3:	aload_0
   4:	invokevirtual	#140; //Method scala/Predef$.exceptionWrapper:(Ljava/lang/Throwable;)Lscala/runtime/RichException;
   7:	areturn

public static final scala.runtime.StringAdd any2stringadd(java.lang.Object);
  Code:
   Stack=2, Locals=1, Args_size=1
   0:	getstatic	#11; //Field scala/Predef$.MODULE$:Lscala/Predef$;
   3:	aload_0
   4:	invokevirtual	#144; //Method scala/Predef$.any2stringadd:(Ljava/lang/Object;)Lscala/runtime/StringAdd;
   7:	areturn

public static final scala.runtime.RichString stringWrapper(java.lang.String);
  Code:
   Stack=2, Locals=1, Args_size=1
   0:	getstatic	#11; //Field scala/Predef$.MODULE$:Lscala/Predef$;
   3:	aload_0
   4:	invokevirtual	#148; //Method scala/Predef$.stringWrapper:(Ljava/lang/String;)Lscala/runtime/RichString;
   7:	areturn

public static final scala.runtime.RichBoolean booleanWrapper(boolean);
  Code:
   Stack=2, Locals=1, Args_size=1
   0:	getstatic	#11; //Field scala/Predef$.MODULE$:Lscala/Predef$;
   3:	iload_0
   4:	invokevirtual	#152; //Method scala/Predef$.booleanWrapper:(Z)Lscala/runtime/RichBoolean;
   7:	areturn

public static final scala.runtime.RichDouble doubleWrapper(double);
  Code:
   Stack=3, Locals=2, Args_size=1
   0:	getstatic	#11; //Field scala/Predef$.MODULE$:Lscala/Predef$;
   3:	dload_0
   4:	invokevirtual	#156; //Method scala/Predef$.doubleWrapper:(D)Lscala/runtime/RichDouble;
   7:	areturn

public static final scala.runtime.RichFloat floatWrapper(float);
  Code:
   Stack=2, Locals=1, Args_size=1
   0:	getstatic	#11; //Field scala/Predef$.MODULE$:Lscala/Predef$;
   3:	fload_0
   4:	invokevirtual	#160; //Method scala/Predef$.floatWrapper:(F)Lscala/runtime/RichFloat;
   7:	areturn

public static final scala.runtime.RichLong longWrapper(long);
  Code:
   Stack=3, Locals=2, Args_size=1
   0:	getstatic	#11; //Field scala/Predef$.MODULE$:Lscala/Predef$;
   3:	lload_0
   4:	invokevirtual	#164; //Method scala/Predef$.longWrapper:(J)Lscala/runtime/RichLong;
   7:	areturn

public static final scala.runtime.RichChar charWrapper(char);
  Code:
   Stack=2, Locals=1, Args_size=1
   0:	getstatic	#11; //Field scala/Predef$.MODULE$:Lscala/Predef$;
   3:	iload_0
   4:	invokevirtual	#168; //Method scala/Predef$.charWrapper:(C)Lscala/runtime/RichChar;
   7:	areturn

public static final scala.runtime.RichInt intWrapper(int);
  Code:
   Stack=2, Locals=1, Args_size=1
   0:	getstatic	#11; //Field scala/Predef$.MODULE$:Lscala/Predef$;
   3:	iload_0
   4:	invokevirtual	#172; //Method scala/Predef$.intWrapper:(I)Lscala/runtime/RichInt;
   7:	areturn

public static final scala.runtime.RichShort shortWrapper(short);
  Code:
   Stack=2, Locals=1, Args_size=1
   0:	getstatic	#11; //Field scala/Predef$.MODULE$:Lscala/Predef$;
   3:	iload_0
   4:	invokevirtual	#176; //Method scala/Predef$.shortWrapper:(S)Lscala/runtime/RichShort;
   7:	areturn

public static final scala.runtime.RichByte byteWrapper(byte);
  Code:
   Stack=2, Locals=1, Args_size=1
   0:	getstatic	#11; //Field scala/Predef$.MODULE$:Lscala/Predef$;
   3:	iload_0
   4:	invokevirtual	#180; //Method scala/Predef$.byteWrapper:(B)Lscala/runtime/RichByte;
   7:	areturn

public static final java.lang.Object identity(java.lang.Object);
  Code:
   Stack=2, Locals=1, Args_size=1
   0:	getstatic	#11; //Field scala/Predef$.MODULE$:Lscala/Predef$;
   3:	aload_0
   4:	invokevirtual	#184; //Method scala/Predef$.identity:(Ljava/lang/Object;)Ljava/lang/Object;
   7:	areturn
  Signature: length = 0x2
   00 FFFFFFB9 

public static final scala.Tuple3 readf3(java.lang.String);
  Code:
   Stack=2, Locals=1, Args_size=1
   0:	getstatic	#11; //Field scala/Predef$.MODULE$:Lscala/Predef$;
   3:	aload_0
   4:	invokevirtual	#189; //Method scala/Predef$.readf3:(Ljava/lang/String;)Lscala/Tuple3;
   7:	areturn
  Signature: length = 0x2
   00 FFFFFFBE 

public static final scala.Tuple2 readf2(java.lang.String);
  Code:
   Stack=2, Locals=1, Args_size=1
   0:	getstatic	#11; //Field scala/Predef$.MODULE$:Lscala/Predef$;
   3:	aload_0
   4:	invokevirtual	#194; //Method scala/Predef$.readf2:(Ljava/lang/String;)Lscala/Tuple2;
   7:	areturn
  Signature: length = 0x2
   00 FFFFFFC3 

public static final java.lang.Object readf1(java.lang.String);
  Code:
   Stack=2, Locals=1, Args_size=1
   0:	getstatic	#11; //Field scala/Predef$.MODULE$:Lscala/Predef$;
   3:	aload_0
   4:	invokevirtual	#199; //Method scala/Predef$.readf1:(Ljava/lang/String;)Ljava/lang/Object;
   7:	areturn

public static final scala.collection.immutable.List readf(java.lang.String);
  Code:
   Stack=2, Locals=1, Args_size=1
   0:	getstatic	#11; //Field scala/Predef$.MODULE$:Lscala/Predef$;
   3:	aload_0
   4:	invokevirtual	#203; //Method scala/Predef$.readf:(Ljava/lang/String;)Lscala/collection/immutable/List;
   7:	areturn
  Signature: length = 0x2
   00 FFFFFFCC 

public static final double readDouble();
  Code:
   Stack=2, Locals=0, Args_size=0
   0:	getstatic	#11; //Field scala/Predef$.MODULE$:Lscala/Predef$;
   3:	invokevirtual	#208; //Method scala/Predef$.readDouble:()D
   6:	dreturn

public static final float readFloat();
  Code:
   Stack=1, Locals=0, Args_size=0
   0:	getstatic	#11; //Field scala/Predef$.MODULE$:Lscala/Predef$;
   3:	invokevirtual	#212; //Method scala/Predef$.readFloat:()F
   6:	freturn

public static final long readLong();
  Code:
   Stack=2, Locals=0, Args_size=0
   0:	getstatic	#11; //Field scala/Predef$.MODULE$:Lscala/Predef$;
   3:	invokevirtual	#216; //Method scala/Predef$.readLong:()J
   6:	lreturn

public static final int readInt();
  Code:
   Stack=1, Locals=0, Args_size=0
   0:	getstatic	#11; //Field scala/Predef$.MODULE$:Lscala/Predef$;
   3:	invokevirtual	#220; //Method scala/Predef$.readInt:()I
   6:	ireturn

public static final char readChar();
  Code:
   Stack=1, Locals=0, Args_size=0
   0:	getstatic	#11; //Field scala/Predef$.MODULE$:Lscala/Predef$;
   3:	invokevirtual	#224; //Method scala/Predef$.readChar:()C
   6:	ireturn

public static final short readShort();
  Code:
   Stack=1, Locals=0, Args_size=0
   0:	getstatic	#11; //Field scala/Predef$.MODULE$:Lscala/Predef$;
   3:	invokevirtual	#228; //Method scala/Predef$.readShort:()S
   6:	ireturn

public static final byte readByte();
  Code:
   Stack=1, Locals=0, Args_size=0
   0:	getstatic	#11; //Field scala/Predef$.MODULE$:Lscala/Predef$;
   3:	invokevirtual	#232; //Method scala/Predef$.readByte:()B
   6:	ireturn

public static final boolean readBoolean();
  Code:
   Stack=1, Locals=0, Args_size=0
   0:	getstatic	#11; //Field scala/Predef$.MODULE$:Lscala/Predef$;
   3:	invokevirtual	#236; //Method scala/Predef$.readBoolean:()Z
   6:	ireturn

public static final java.lang.String readLine(java.lang.String, scala.collection.Sequence);
  Code:
   Stack=3, Locals=2, Args_size=2
   0:	getstatic	#11; //Field scala/Predef$.MODULE$:Lscala/Predef$;
   3:	aload_0
   4:	aload_1
   5:	invokevirtual	#240; //Method scala/Predef$.readLine:(Ljava/lang/String;Lscala/collection/Sequence;)Ljava/lang/String;
   8:	areturn
  Signature: length = 0x2
   00 FFFFFFF1 

public static final java.lang.String readLine();
  Code:
   Stack=1, Locals=0, Args_size=0
   0:	getstatic	#11; //Field scala/Predef$.MODULE$:Lscala/Predef$;
   3:	invokevirtual	#244; //Method scala/Predef$.readLine:()Ljava/lang/String;
   6:	areturn

public static final java.lang.String format(java.lang.String, scala.collection.Sequence);
  Code:
   Stack=3, Locals=2, Args_size=2
   0:	getstatic	#11; //Field scala/Predef$.MODULE$:Lscala/Predef$;
   3:	aload_0
   4:	aload_1
   5:	invokevirtual	#247; //Method scala/Predef$.format:(Ljava/lang/String;Lscala/collection/Sequence;)Ljava/lang/String;
   8:	areturn
  Signature: length = 0x2
   00 FFFFFFF1 

public static final void printf(java.lang.String, scala.collection.Sequence);
  Code:
   Stack=3, Locals=2, Args_size=2
   0:	getstatic	#11; //Field scala/Predef$.MODULE$:Lscala/Predef$;
   3:	aload_0
   4:	aload_1
   5:	invokevirtual	#251; //Method scala/Predef$.printf:(Ljava/lang/String;Lscala/collection/Sequence;)V
   8:	return
  Signature: length = 0x2
   00 FFFFFFFC 

public static final void println(java.lang.Object);
  Code:
   Stack=2, Locals=1, Args_size=1
   0:	getstatic	#11; //Field scala/Predef$.MODULE$:Lscala/Predef$;
   3:	aload_0
   4:	invokevirtual	#256; //Method scala/Predef$.println:(Ljava/lang/Object;)V
   7:	return

public static final void println();
  Code:
   Stack=1, Locals=0, Args_size=0
   0:	getstatic	#11; //Field scala/Predef$.MODULE$:Lscala/Predef$;
   3:	invokevirtual	#259; //Method scala/Predef$.println:()V
   6:	return

public static final void print(java.lang.Object);
  Code:
   Stack=2, Locals=1, Args_size=1
   0:	getstatic	#11; //Field scala/Predef$.MODULE$:Lscala/Predef$;
   3:	aload_0
   4:	invokevirtual	#262; //Method scala/Predef$.print:(Ljava/lang/Object;)V
   7:	return

public static final scala.Tuple9 Tuple(java.lang.Object, java.lang.Object, java.lang.Object, java.lang.Object, java.lang.Object, java.lang.Object, java.lang.Object, java.lang.Object, java.lang.Object);
  Code:
   Stack=10, Locals=9, Args_size=9
   0:	getstatic	#11; //Field scala/Predef$.MODULE$:Lscala/Predef$;
   3:	aload_0
   4:	aload_1
   5:	aload_2
   6:	aload_3
   7:	aload	4
   9:	aload	5
   11:	aload	6
   13:	aload	7
   15:	aload	8
   17:	invokevirtual	#266; //Method scala/Predef$.Tuple:(Ljava/lang/Object;Ljava/lang/Object;Ljava/lang/Object;Ljava/lang/Object;Ljava/lang/Object;Ljava/lang/Object;Ljava/lang/Object;Ljava/lang/Object;Ljava/lang/Object;)Lscala/Tuple9;
   20:	areturn
  Signature: length = 0x2
   01 0B 

public static final scala.Tuple8 Tuple(java.lang.Object, java.lang.Object, java.lang.Object, java.lang.Object, java.lang.Object, java.lang.Object, java.lang.Object, java.lang.Object);
  Code:
   Stack=9, Locals=8, Args_size=8
   0:	getstatic	#11; //Field scala/Predef$.MODULE$:Lscala/Predef$;
   3:	aload_0
   4:	aload_1
   5:	aload_2
   6:	aload_3
   7:	aload	4
   9:	aload	5
   11:	aload	6
   13:	aload	7
   15:	invokevirtual	#270; //Method scala/Predef$.Tuple:(Ljava/lang/Object;Ljava/lang/Object;Ljava/lang/Object;Ljava/lang/Object;Ljava/lang/Object;Ljava/lang/Object;Ljava/lang/Object;Ljava/lang/Object;)Lscala/Tuple8;
   18:	areturn
  Signature: length = 0x2
   01 0F 

public static final scala.Tuple7 Tuple(java.lang.Object, java.lang.Object, java.lang.Object, java.lang.Object, java.lang.Object, java.lang.Object, java.lang.Object);
  Code:
   Stack=8, Locals=7, Args_size=7
   0:	getstatic	#11; //Field scala/Predef$.MODULE$:Lscala/Predef$;
   3:	aload_0
   4:	aload_1
   5:	aload_2
   6:	aload_3
   7:	aload	4
   9:	aload	5
   11:	aload	6
   13:	invokevirtual	#274; //Method scala/Predef$.Tuple:(Ljava/lang/Object;Ljava/lang/Object;Ljava/lang/Object;Ljava/lang/Object;Ljava/lang/Object;Ljava/lang/Object;Ljava/lang/Object;)Lscala/Tuple7;
   16:	areturn
  Signature: length = 0x2
   01 13 

public static final scala.Tuple6 Tuple(java.lang.Object, java.lang.Object, java.lang.Object, java.lang.Object, java.lang.Object, java.lang.Object);
  Code:
   Stack=7, Locals=6, Args_size=6
   0:	getstatic	#11; //Field scala/Predef$.MODULE$:Lscala/Predef$;
   3:	aload_0
   4:	aload_1
   5:	aload_2
   6:	aload_3
   7:	aload	4
   9:	aload	5
   11:	invokevirtual	#278; //Method scala/Predef$.Tuple:(Ljava/lang/Object;Ljava/lang/Object;Ljava/lang/Object;Ljava/lang/Object;Ljava/lang/Object;Ljava/lang/Object;)Lscala/Tuple6;
   14:	areturn
  Signature: length = 0x2
   01 17 

public static final scala.Tuple5 Tuple(java.lang.Object, java.lang.Object, java.lang.Object, java.lang.Object, java.lang.Object);
  Code:
   Stack=6, Locals=5, Args_size=5
   0:	getstatic	#11; //Field scala/Predef$.MODULE$:Lscala/Predef$;
   3:	aload_0
   4:	aload_1
   5:	aload_2
   6:	aload_3
   7:	aload	4
   9:	invokevirtual	#282; //Method scala/Predef$.Tuple:(Ljava/lang/Object;Ljava/lang/Object;Ljava/lang/Object;Ljava/lang/Object;Ljava/lang/Object;)Lscala/Tuple5;
   12:	areturn
  Signature: length = 0x2
   01 1B 

public static final scala.Tuple4 Tuple(java.lang.Object, java.lang.Object, java.lang.Object, java.lang.Object);
  Code:
   Stack=5, Locals=4, Args_size=4
   0:	getstatic	#11; //Field scala/Predef$.MODULE$:Lscala/Predef$;
   3:	aload_0
   4:	aload_1
   5:	aload_2
   6:	aload_3
   7:	invokevirtual	#286; //Method scala/Predef$.Tuple:(Ljava/lang/Object;Ljava/lang/Object;Ljava/lang/Object;Ljava/lang/Object;)Lscala/Tuple4;
   10:	areturn
  Signature: length = 0x2
   01 1F 

public static final scala.Tuple3 Tuple(java.lang.Object, java.lang.Object, java.lang.Object);
  Code:
   Stack=4, Locals=3, Args_size=3
   0:	getstatic	#11; //Field scala/Predef$.MODULE$:Lscala/Predef$;
   3:	aload_0
   4:	aload_1
   5:	aload_2
   6:	invokevirtual	#290; //Method scala/Predef$.Tuple:(Ljava/lang/Object;Ljava/lang/Object;Ljava/lang/Object;)Lscala/Tuple3;
   9:	areturn
  Signature: length = 0x2
   01 23 

public static final scala.Tuple2 Tuple(java.lang.Object, java.lang.Object);
  Code:
   Stack=3, Locals=2, Args_size=2
   0:	getstatic	#11; //Field scala/Predef$.MODULE$:Lscala/Predef$;
   3:	aload_0
   4:	aload_1
   5:	invokevirtual	#294; //Method scala/Predef$.Tuple:(Ljava/lang/Object;Ljava/lang/Object;)Lscala/Tuple2;
   8:	areturn
  Signature: length = 0x2
   01 27 

public static final scala.Tuple1 Tuple(java.lang.Object);
  Code:
   Stack=2, Locals=1, Args_size=1
   0:	getstatic	#11; //Field scala/Predef$.MODULE$:Lscala/Predef$;
   3:	aload_0
   4:	invokevirtual	#298; //Method scala/Predef$.Tuple:(Ljava/lang/Object;)Lscala/Tuple1;
   7:	areturn
  Signature: length = 0x2
   01 2B 

public static final scala.Predef$ArrowAssoc any2ArrowAssoc(java.lang.Object);
  Code:
   Stack=2, Locals=1, Args_size=1
   0:	getstatic	#11; //Field scala/Predef$.MODULE$:Lscala/Predef$;
   3:	aload_0
   4:	invokevirtual	#303; //Method scala/Predef$.any2ArrowAssoc:(Ljava/lang/Object;)Lscala/Predef$ArrowAssoc;
   7:	areturn
  Signature: length = 0x2
   01 30 

public static final scala.Predef$Ensuring any2Ensuring(java.lang.Object);
  Code:
   Stack=2, Locals=1, Args_size=1
   0:	getstatic	#11; //Field scala/Predef$.MODULE$:Lscala/Predef$;
   3:	aload_0
   4:	invokevirtual	#308; //Method scala/Predef$.any2Ensuring:(Ljava/lang/Object;)Lscala/Predef$Ensuring;
   7:	areturn
  Signature: length = 0x2
   01 35 

public static final void require(boolean, scala.Function0);
  Code:
   Stack=3, Locals=2, Args_size=2
   0:	getstatic	#11; //Field scala/Predef$.MODULE$:Lscala/Predef$;
   3:	iload_0
   4:	aload_1
   5:	invokevirtual	#313; //Method scala/Predef$.require:(ZLscala/Function0;)V
   8:	return
  Signature: length = 0x2
   01 3A 

public static final void require(boolean);
  Code:
   Stack=2, Locals=1, Args_size=1
   0:	getstatic	#11; //Field scala/Predef$.MODULE$:Lscala/Predef$;
   3:	iload_0
   4:	invokevirtual	#317; //Method scala/Predef$.require:(Z)V
   7:	return

public static final void assume(boolean, scala.Function0);
  Code:
   Stack=3, Locals=2, Args_size=2
   0:	getstatic	#11; //Field scala/Predef$.MODULE$:Lscala/Predef$;
   3:	iload_0
   4:	aload_1
   5:	invokevirtual	#320; //Method scala/Predef$.assume:(ZLscala/Function0;)V
   8:	return
  Signature: length = 0x2
   01 3A 

public static final void assume(boolean);
  Code:
   Stack=2, Locals=1, Args_size=1
   0:	getstatic	#11; //Field scala/Predef$.MODULE$:Lscala/Predef$;
   3:	iload_0
   4:	invokevirtual	#322; //Method scala/Predef$.assume:(Z)V
   7:	return

public static final void assert(boolean, scala.Function0);
  Code:
   Stack=3, Locals=2, Args_size=2
   0:	getstatic	#11; //Field scala/Predef$.MODULE$:Lscala/Predef$;
   3:	iload_0
   4:	aload_1
   5:	invokevirtual	#325; //Method scala/Predef$.assert:(ZLscala/Function0;)V
   8:	return
  Signature: length = 0x2
   01 3A 

public static final void assert(boolean);
  Code:
   Stack=2, Locals=1, Args_size=1
   0:	getstatic	#11; //Field scala/Predef$.MODULE$:Lscala/Predef$;
   3:	iload_0
   4:	invokevirtual	#327; //Method scala/Predef$.assert:(Z)V
   7:	return

public static final scala.runtime.Nothing$ exit(int);
  Code:
   Stack=2, Locals=1, Args_size=1
   0:	getstatic	#11; //Field scala/Predef$.MODULE$:Lscala/Predef$;
   3:	iload_0
   4:	invokevirtual	#331; //Method scala/Predef$.exit:(I)Lscala/runtime/Nothing$;
   7:	areturn

public static final scala.runtime.Nothing$ exit();
  Code:
   Stack=1, Locals=0, Args_size=0
   0:	getstatic	#11; //Field scala/Predef$.MODULE$:Lscala/Predef$;
   3:	invokevirtual	#334; //Method scala/Predef$.exit:()Lscala/runtime/Nothing$;
   6:	areturn

public static final scala.runtime.Nothing$ error(java.lang.String);
  Code:
   Stack=2, Locals=1, Args_size=1
   0:	getstatic	#11; //Field scala/Predef$.MODULE$:Lscala/Predef$;
   3:	aload_0
   4:	invokevirtual	#338; //Method scala/Predef$.error:(Ljava/lang/String;)Lscala/runtime/Nothing$;
   7:	areturn

public static final scala.collection.immutable.Set$ Set();
  Code:
   Stack=1, Locals=0, Args_size=0
   0:	getstatic	#11; //Field scala/Predef$.MODULE$:Lscala/Predef$;
   3:	invokevirtual	#342; //Method scala/Predef$.Set:()Lscala/collection/immutable/Set$;
   6:	areturn

public static final scala.collection.immutable.Map$ Map();
  Code:
   Stack=1, Locals=0, Args_size=0
   0:	getstatic	#11; //Field scala/Predef$.MODULE$:Lscala/Predef$;
   3:	invokevirtual	#346; //Method scala/Predef$.Map:()Lscala/collection/immutable/Map$;
   6:	areturn

public static final scala.xml.TopScope$ $scope();
  Code:
   Stack=1, Locals=0, Args_size=0
   0:	getstatic	#11; //Field scala/Predef$.MODULE$:Lscala/Predef$;
   3:	invokevirtual	#350; //Method scala/Predef$.$scope:()Lscala/xml/TopScope$;
   6:	areturn

public static final java.lang.Class classOf();
  Code:
   Stack=1, Locals=0, Args_size=0
   0:	getstatic	#11; //Field scala/Predef$.MODULE$:Lscala/Predef$;
   3:	invokevirtual	#354; //Method scala/Predef$.classOf:()Ljava/lang/Class;
   6:	areturn
  Signature: length = 0x2
   01 63 

}

