Compiled from "Tuple1.scala"
public class scala.Tuple1 extends java.lang.Object implements scala.Product1,scala.ScalaObject,scala.Product,java.io.Serializable
  SourceFile: "Tuple1.scala"
  Signature: length = 0x2
   00 FFFFFF80 
  ScalaSig: length = 0x31A
   05 00 7E 06 04 01 02 40 05 02 06 54 75 70 6C 65
   31 0A 01 03 01 05 73 63 61 6C 61 03 00 15 02 06
   15 13 05 00 07 0F 1E 21 10 02 08 0D 0D 01 09 0A
   02 0A 0B 01 04 6C 61 6E 67 0A 01 0C 01 04 6A 61
   76 61 09 02 0E 09 02 06 4F 62 6A 65 63 74 10 03
   10 11 13 0D 01 02 09 02 12 02 02 08 50 72 6F 64
   75 63 74 31 10 02 14 15 0C 00 04 08 16 00 FFFFFF84 FFFFFF80
   FFFFFF84 FFFFFFC2 00 17 02 02 54 31 11 02 18 1B 10 02 10 19
   09 02 1A 02 02 07 4E 6F 74 68 69 6E 67 10 02 10
   1C 09 02 1D 02 02 03 41 6E 79 10 02 10 1F 09 02
   20 02 02 0B 53 63 61 6C 61 4F 62 6A 65 63 74 10
   02 10 22 09 02 23 02 02 07 50 72 6F 64 75 63 74
   08 08 25 00 FFFFFF82 FFFFFFCA FFFFFF80 FFFFFF84 00 26 01 02 5F 31 15 01
   13 08 08 28 00 FFFFFF82 FFFFFF88 FFFFFFA0 FFFFFF80 04 13 01 03 5F 31 20
   08 05 2A 00 FFFFFF84 00 2B 01 06 3C 69 6E 69 74 3E 14
   02 2C 2D 10 03 10 00 13 08 05 25 29 FFFFFFC0 00 13 08
   05 2F 00 FFFFFF84 20 30 01 08 74 6F 53 74 72 69 6E 67
   14 01 31 10 02 08 32 09 02 33 09 02 06 53 74 72
   69 6E 67 08 07 35 00 FFFFFF81 FFFFFF80 FFFFFF84 00 36 01 04 63 6F
   70 79 15 02 37 3A 14 02 38 3B 10 03 10 00 39 10
   02 14 3A 04 08 16 34 FFFFFF84 FFFFFF80 FFFFFF80 FFFFFFC2 00 17 08 08 3C
   25 34 FFFFFF90 FFFFFF80 FFFFFFC0 00 39 08 07 3D 00 FFFFFF91 FFFFFF80 FFFFFF84 00 3E
   01 0E 63 6F 70 79 24 64 65 66 61 75 6C 74 24 31
   15 02 3F 49 2A 02 13 40 2B 01 41 10 02 42 47 0D
   01 43 0A 02 44 45 01 09 75 6E 63 68 65 63 6B 65
   64 0A 02 46 02 01 0A 61 6E 6E 6F 74 61 74 69 6F
   6E 09 02 48 43 02 11 75 6E 63 68 65 63 6B 65 64
   56 61 72 69 61 6E 63 65 04 08 16 3C FFFFFF84 FFFFFF80 FFFFFF80 FFFFFFC2
   00 17 08 08 4B 00 FFFFFF84 FFFFFF80 FFFFFF80 FFFFFF84 20 4C 01 08 68 61
   73 68 43 6F 64 65 14 01 4D 10 02 10 4E 09 02 4F
   02 02 03 49 6E 74 08 08 51 00 FFFFFF84 FFFFFF80 FFFFFF80 FFFFFF84 20 52
   01 06 65 71 75 61 6C 73 14 02 53 56 10 02 10 54
   09 02 55 02 02 07 42 6F 6F 6C 65 61 6E 08 07 57
   50 FFFFFF81 FFFFFF80 FFFFFFC0 00 1B 01 03 78 24 31 08 08 59 00 FFFFFF84
   FFFFFF80 FFFFFF80 FFFFFF84 20 5A 01 0D 70 72 6F 64 75 63 74 50 72
   65 66 69 78 15 01 31 08 08 5C 00 FFFFFF84 FFFFFF80 FFFFFF80 FFFFFF84 20
   5D 01 08 63 61 6E 45 71 75 61 6C 14 02 53 5E 08
   07 57 5B FFFFFF81 FFFFFF80 FFFFFFC0 00 1B 28 02 00 60 10 02 10 61
   09 02 62 02 02 0C 73 65 72 69 61 6C 69 7A 61 62
   6C 65 07 07 64 02 FFFFFF81 FFFFFF80 FFFFFF88 02 65 01 06 54 75 70
   6C 65 31 10 02 10 66 06 08 01 02 FFFFFF84 FFFFFF81 FFFFFF80 FFFFFF88 02
   67 13 03 66 07 1E 08 05 2A 66 FFFFFF84 00 69 14 01 65
   08 07 6B 66 FFFFFF81 FFFFFF80 FFFFFF84 40 6C 01 05 61 70 70 6C 79
   15 02 6D 70 14 02 6E 71 10 03 10 00 6F 10 02 14
   70 04 08 16 6A FFFFFF84 FFFFFF80 FFFFFF80 FFFFFFC2 00 17 08 05 25 6A FFFFFFC0
   00 6F 08 07 73 66 FFFFFF81 FFFFFF80 FFFFFF84 40 74 01 07 75 6E 61
   70 70 6C 79 15 02 75 7A 14 02 76 7B 10 03 10 77
   79 09 02 78 02 02 04 53 6F 6D 65 10 02 14 7A 04
   08 16 72 FFFFFF84 FFFFFF80 FFFFFF80 FFFFFFC2 00 17 08 05 7C 72 FFFFFFC0 00 7D
   01 03 78 24 30 10 03 10 00 79 
  minor version: 0
  major version: 49
  Constant pool:
const #1 = Asciz	SourceFile;
const #2 = Asciz	Tuple1.scala;
const #3 = Asciz	_1;
const #4 = Asciz	Ljava/lang/Object;;
const #5 = Asciz	TT1;;
const #6 = Asciz	Signature;
const #7 = Asciz	<init>;
const #8 = Asciz	(Ljava/lang/Object;)V;
const #9 = Asciz	Code;
const #10 = Asciz	LineNumberTable;
const #11 = Asciz	scala/Tuple1;
const #12 = class	#11;	//  scala/Tuple1
const #13 = NameAndType	#3:#4;//  _1:Ljava/lang/Object;
const #14 = Field	#12.#13;	//  scala/Tuple1._1:Ljava/lang/Object;
const #15 = Asciz	java/lang/Object;
const #16 = class	#15;	//  java/lang/Object
const #17 = Asciz	()V;
const #18 = NameAndType	#7:#17;//  "<init>":()V
const #19 = Method	#16.#18;	//  java/lang/Object."<init>":()V
const #20 = Asciz	scala/Product$class;
const #21 = class	#20;	//  scala/Product$class
const #22 = Asciz	$init$;
const #23 = Asciz	(Lscala/Product;)V;
const #24 = NameAndType	#22:#23;//  $init$:(Lscala/Product;)V
const #25 = Method	#21.#24;	//  scala/Product$class.$init$:(Lscala/Product;)V
const #26 = Asciz	scala/Product1$class;
const #27 = class	#26;	//  scala/Product1$class
const #28 = Asciz	(Lscala/Product1;)V;
const #29 = NameAndType	#22:#28;//  $init$:(Lscala/Product1;)V
const #30 = Method	#27.#29;	//  scala/Product1$class.$init$:(Lscala/Product1;)V
const #31 = Asciz	this;
const #32 = Asciz	Lscala/Tuple1;;
const #33 = Asciz	LocalVariableTable;
const #34 = Asciz	(TT1;)V;
const #35 = Asciz	gd1$1;
const #36 = Asciz	(Ljava/lang/Object;)Z;
const #37 = Asciz	()Ljava/lang/Object;;
const #38 = NameAndType	#3:#37;//  _1:()Ljava/lang/Object;
const #39 = Method	#12.#38;	//  scala/Tuple1._1:()Ljava/lang/Object;
const #40 = Asciz	java/lang/Number;
const #41 = class	#40;	//  java/lang/Number
const #42 = Asciz	java/lang/Character;
const #43 = class	#42;	//  java/lang/Character
const #44 = Asciz	scala/runtime/BoxesRunTime;
const #45 = class	#44;	//  scala/runtime/BoxesRunTime
const #46 = Asciz	equals2;
const #47 = Asciz	(Ljava/lang/Object;Ljava/lang/Object;)Z;
const #48 = NameAndType	#46:#47;//  equals2:(Ljava/lang/Object;Ljava/lang/Object;)Z
const #49 = Method	#45.#48;	//  scala/runtime/BoxesRunTime.equals2:(Ljava/lang/Object;Ljava/lang/Object;)Z
const #50 = Asciz	equals;
const #51 = NameAndType	#50:#36;//  equals:(Ljava/lang/Object;)Z
const #52 = Method	#16.#51;	//  java/lang/Object.equals:(Ljava/lang/Object;)Z
const #53 = Asciz	y0;
const #54 = Asciz	canEqual;
const #55 = Asciz	productPrefix;
const #56 = Asciz	()Ljava/lang/String;;
const #57 = Asciz	Tuple1;
const #58 = String	#57;	//  Tuple1
const #59 = NameAndType	#35:#36;//  gd1$1:(Ljava/lang/Object;)Z
const #60 = Method	#12.#59;	//  scala/Tuple1.gd1$1:(Ljava/lang/Object;)Z
const #61 = Asciz	scala/Equals;
const #62 = class	#61;	//  scala/Equals
const #63 = NameAndType	#54:#36;//  canEqual:(Ljava/lang/Object;)Z
const #64 = InterfaceMethod	#62.#63;	//  scala/Equals.canEqual:(Ljava/lang/Object;)Z
const #65 = Asciz	scala/MatchError;
const #66 = class	#65;	//  scala/MatchError
const #67 = Asciz	toString;
const #68 = NameAndType	#67:#56;//  toString:()Ljava/lang/String;
const #69 = Method	#16.#68;	//  java/lang/Object.toString:()Ljava/lang/String;
const #70 = Asciz	(Ljava/lang/String;)V;
const #71 = NameAndType	#7:#70;//  "<init>":(Ljava/lang/String;)V
const #72 = Method	#66.#71;	//  scala/MatchError."<init>":(Ljava/lang/String;)V
const #73 = Asciz	temp2;
const #74 = Asciz	temp3;
const #75 = Asciz	hashCode;
const #76 = Asciz	()I;
const #77 = Asciz	scala/runtime/ScalaRunTime$;
const #78 = class	#77;	//  scala/runtime/ScalaRunTime$
const #79 = Asciz	MODULE$;
const #80 = Asciz	Lscala/runtime/ScalaRunTime$;;
const #81 = NameAndType	#79:#80;//  MODULE$:Lscala/runtime/ScalaRunTime$;
const #82 = Field	#78.#81;	//  scala/runtime/ScalaRunTime$.MODULE$:Lscala/runtime/ScalaRunTime$;
const #83 = Asciz	_hashCode;
const #84 = Asciz	(Lscala/Product;)I;
const #85 = NameAndType	#83:#84;//  _hashCode:(Lscala/Product;)I
const #86 = Method	#78.#85;	//  scala/runtime/ScalaRunTime$._hashCode:(Lscala/Product;)I
const #87 = Asciz	copy;
const #88 = Asciz	(Ljava/lang/Object;)Lscala/Tuple1;;
const #89 = NameAndType	#7:#8;//  "<init>":(Ljava/lang/Object;)V
const #90 = Method	#12.#89;	//  scala/Tuple1."<init>":(Ljava/lang/Object;)V
const #91 = Asciz	scala/collection/mutable/StringBuilder;
const #92 = class	#91;	//  scala/collection/mutable/StringBuilder
const #93 = Method	#92.#18;	//  scala/collection/mutable/StringBuilder."<init>":()V
const #94 = Asciz	(;
const #95 = String	#94;	//  (
const #96 = Asciz	append;
const #97 = Asciz	(Ljava/lang/Object;)Lscala/collection/mutable/StringBuilder;;
const #98 = NameAndType	#96:#97;//  append:(Ljava/lang/Object;)Lscala/collection/mutable/StringBuilder;
const #99 = Method	#92.#98;	//  scala/collection/mutable/StringBuilder.append:(Ljava/lang/Object;)Lscala/collection/mutable/StringBuilder;
const #100 = Asciz	);
const #101 = String	#100;	//  )
const #102 = Method	#92.#68;	//  scala/collection/mutable/StringBuilder.toString:()Ljava/lang/String;
const #103 = Asciz	()TT1;;
const #104 = Asciz	copy$default$1;
const #105 = Asciz	productElements;
const #106 = Asciz	()Lscala/collection/Iterator;;
const #107 = Asciz	(Lscala/Product;)Lscala/collection/Iterator;;
const #108 = NameAndType	#105:#107;//  productElements:(Lscala/Product;)Lscala/collection/Iterator;
const #109 = Method	#21.#108;	//  scala/Product$class.productElements:(Lscala/Product;)Lscala/collection/Iterator;
const #110 = Asciz	Deprecated;
const #111 = Asciz	productIterator;
const #112 = NameAndType	#111:#107;//  productIterator:(Lscala/Product;)Lscala/collection/Iterator;
const #113 = Method	#21.#112;	//  scala/Product$class.productIterator:(Lscala/Product;)Lscala/collection/Iterator;
const #114 = Asciz	productElement;
const #115 = Asciz	(I)Ljava/lang/Object;;
const #116 = Asciz	(Lscala/Product1;I)Ljava/lang/Object;;
const #117 = NameAndType	#114:#116;//  productElement:(Lscala/Product1;I)Ljava/lang/Object;
const #118 = Method	#27.#117;	//  scala/Product1$class.productElement:(Lscala/Product1;I)Ljava/lang/Object;
const #119 = Asciz	n;
const #120 = Asciz	I;
const #121 = Asciz	java/lang/IndexOutOfBoundsException;
const #122 = class	#121;	//  java/lang/IndexOutOfBoundsException
const #123 = Asciz	Exceptions;
const #124 = Asciz	productArity;
const #125 = Asciz	(Lscala/Product1;)I;
const #126 = NameAndType	#124:#125;//  productArity:(Lscala/Product1;)I
const #127 = Method	#27.#126;	//  scala/Product1$class.productArity:(Lscala/Product1;)I
const #128 = Asciz	<T1:Ljava/lang/Object;>Ljava/lang/Object;Lscala/Product1<TT1;>;Lscala/ScalaObject;Lscala/Product;;
const #129 = Asciz	ScalaSig;
const #130 = Asciz	scala/Product1;
const #131 = class	#130;	//  scala/Product1
const #132 = Asciz	scala/ScalaObject;
const #133 = class	#132;	//  scala/ScalaObject
const #134 = Asciz	scala/Product;
const #135 = class	#134;	//  scala/Product
const #136 = Asciz	java/io/Serializable;
const #137 = class	#136;	//  java/io/Serializable

{
public scala.Tuple1(java.lang.Object);
  Code:
   Stack=2, Locals=2, Args_size=2
   0:	aload_0
   1:	aload_1
   2:	putfield	#14; //Field _1:Ljava/lang/Object;
   5:	aload_0
   6:	invokespecial	#19; //Method java/lang/Object."<init>":()V
   9:	aload_0
   10:	invokestatic	#25; //Method scala/Product$class.$init$:(Lscala/Product;)V
   13:	aload_0
   14:	invokestatic	#30; //Method scala/Product1$class.$init$:(Lscala/Product1;)V
   17:	return
  LineNumberTable: 
   line 20: 0

  LocalVariableTable: 
   Start  Length  Slot  Name   Signature
   0      18      0    this       Lscala/Tuple1;
   0      18      1    _1       Ljava/lang/Object;

  Signature: length = 0x2
   00 22 

public boolean canEqual(java.lang.Object);
  Code:
   Stack=1, Locals=2, Args_size=2
   0:	aload_1
   1:	instanceof	#12; //class scala/Tuple1
   4:	ireturn
  LineNumberTable: 
   line 20: 0


public java.lang.String productPrefix();
  Code:
   Stack=1, Locals=1, Args_size=1
   0:	ldc	#58; //String Tuple1
   2:	areturn
  LineNumberTable: 
   line 20: 0


public boolean equals(java.lang.Object);
  Code:
   Stack=3, Locals=4, Args_size=2
   0:	aload_0
   1:	aload_1
   2:	if_acmpeq	71
   5:	aload_1
   6:	instanceof	#12; //class scala/Tuple1
   9:	ifeq	63
   12:	aload_1
   13:	checkcast	#12; //class scala/Tuple1
   16:	astore_2
   17:	aload_2
   18:	invokevirtual	#39; //Method _1:()Ljava/lang/Object;
   21:	astore_3
   22:	aload_0
   23:	aload_3
   24:	invokespecial	#60; //Method gd1$1:(Ljava/lang/Object;)Z
   27:	ifeq	43
   30:	aload_1
   31:	checkcast	#12; //class scala/Tuple1
   34:	aload_0
   35:	invokeinterface	#64,  2; //InterfaceMethod scala/Equals.canEqual:(Ljava/lang/Object;)Z
   40:	goto	68
   43:	iconst_1
   44:	ifeq	51
   47:	iconst_0
   48:	goto	68
   51:	new	#66; //class scala/MatchError
   54:	dup
   55:	aload_1
   56:	invokevirtual	#69; //Method java/lang/Object.toString:()Ljava/lang/String;
   59:	invokespecial	#72; //Method scala/MatchError."<init>":(Ljava/lang/String;)V
   62:	athrow
   63:	iconst_1
   64:	ifeq	77
   67:	iconst_0
   68:	ifeq	75
   71:	iconst_1
   72:	goto	76
   75:	iconst_0
   76:	ireturn
   77:	new	#66; //class scala/MatchError
   80:	dup
   81:	aload_1
   82:	invokevirtual	#69; //Method java/lang/Object.toString:()Ljava/lang/String;
   85:	invokespecial	#72; //Method scala/MatchError."<init>":(Ljava/lang/String;)V
   88:	athrow
  LineNumberTable: 
   line 20: 0
   line 21: 43
   line 20: 51
   line 21: 63
   line 20: 68

  LocalVariableTable: 
   Start  Length  Slot  Name   Signature
   0      89      0    this       Lscala/Tuple1;
   17      46      2    temp2       Lscala/Tuple1;
   22      41      3    temp3       Ljava/lang/Object;


public int hashCode();
  Code:
   Stack=2, Locals=1, Args_size=1
   0:	getstatic	#82; //Field scala/runtime/ScalaRunTime$.MODULE$:Lscala/runtime/ScalaRunTime$;
   3:	aload_0
   4:	invokevirtual	#86; //Method scala/runtime/ScalaRunTime$._hashCode:(Lscala/Product;)I
   7:	ireturn
  LineNumberTable: 
   line 20: 0


public scala.Tuple1 copy(java.lang.Object);
  Code:
   Stack=3, Locals=2, Args_size=2
   0:	new	#12; //class scala/Tuple1
   3:	dup
   4:	aload_1
   5:	invokespecial	#90; //Method "<init>":(Ljava/lang/Object;)V
   8:	areturn
  LineNumberTable: 
   line 20: 0

  LocalVariableTable: 
   Start  Length  Slot  Name   Signature
   0      9      0    this       Lscala/Tuple1;
   0      9      1    _1       Ljava/lang/Object;


public java.lang.String toString();
  Code:
   Stack=2, Locals=1, Args_size=1
   0:	new	#92; //class scala/collection/mutable/StringBuilder
   3:	dup
   4:	invokespecial	#93; //Method scala/collection/mutable/StringBuilder."<init>":()V
   7:	ldc	#95; //String (
   9:	invokevirtual	#99; //Method scala/collection/mutable/StringBuilder.append:(Ljava/lang/Object;)Lscala/collection/mutable/StringBuilder;
   12:	aload_0
   13:	invokevirtual	#39; //Method _1:()Ljava/lang/Object;
   16:	invokevirtual	#99; //Method scala/collection/mutable/StringBuilder.append:(Ljava/lang/Object;)Lscala/collection/mutable/StringBuilder;
   19:	ldc	#101; //String )
   21:	invokevirtual	#99; //Method scala/collection/mutable/StringBuilder.append:(Ljava/lang/Object;)Lscala/collection/mutable/StringBuilder;
   24:	invokevirtual	#102; //Method scala/collection/mutable/StringBuilder.toString:()Ljava/lang/String;
   27:	areturn
  LineNumberTable: 
   line 23: 0


public java.lang.Object _1();
  Code:
   Stack=1, Locals=1, Args_size=1
   0:	aload_0
   1:	getfield	#14; //Field _1:Ljava/lang/Object;
   4:	areturn
  LineNumberTable: 
   line 20: 0

  Signature: length = 0x2
   00 67 

public java.lang.Object copy$default$1();
  Code:
   Stack=1, Locals=1, Args_size=1
   0:	aload_0
   1:	invokevirtual	#39; //Method _1:()Ljava/lang/Object;
   4:	areturn
  LineNumberTable: 
   line 20: 0


public scala.collection.Iterator productElements();
  Code:
   Stack=1, Locals=1, Args_size=1
   0:	aload_0
   1:	invokestatic	#109; //Method scala/Product$class.productElements:(Lscala/Product;)Lscala/collection/Iterator;
   4:	areturn
  LineNumberTable: 
   line 20: 0

  Deprecated: true

public scala.collection.Iterator productIterator();
  Code:
   Stack=1, Locals=1, Args_size=1
   0:	aload_0
   1:	invokestatic	#113; //Method scala/Product$class.productIterator:(Lscala/Product;)Lscala/collection/Iterator;
   4:	areturn
  LineNumberTable: 
   line 20: 0


public java.lang.Object productElement(int)   throws java.lang.IndexOutOfBoundsException;
  Code:
   Stack=2, Locals=2, Args_size=2
   0:	aload_0
   1:	iload_1
   2:	invokestatic	#118; //Method scala/Product1$class.productElement:(Lscala/Product1;I)Ljava/lang/Object;
   5:	areturn
  LineNumberTable: 
   line 20: 0

  LocalVariableTable: 
   Start  Length  Slot  Name   Signature
   0      6      0    this       Lscala/Tuple1;
   0      6      1    n       I

  Exceptions: 
   throws java.lang.IndexOutOfBoundsException
public int productArity();
  Code:
   Stack=1, Locals=1, Args_size=1
   0:	aload_0
   1:	invokestatic	#127; //Method scala/Product1$class.productArity:(Lscala/Product1;)I
   4:	ireturn
  LineNumberTable: 
   line 20: 0


}

