Compiled from "Tuple1.scala"
public class scala.Tuple1 extends java.lang.Object implements scala.Product1,scala.ScalaObject,scala.Product,java.io.Serializable
  SourceFile: "Tuple1.scala"
  Signature: length = 0x2
   00 73 
  ScalaSig: length = 0x2D6
   05 00 74 06 04 01 02 40 05 02 06 54 75 70 6C 65
   31 0A 01 03 01 05 73 63 61 6C 61 03 00 15 02 06
   15 13 05 00 07 0F 1E 21 10 02 08 0D 0D 01 09 0A
   02 0A 0B 01 04 6C 61 6E 67 0A 01 0C 01 04 6A 61
   76 61 09 02 0E 09 02 06 4F 62 6A 65 63 74 10 03
   10 11 13 0D 01 02 09 02 12 02 02 08 50 72 6F 64
   75 63 74 31 10 02 14 15 0C 00 04 08 16 00 FFFFFF84 FFFFFF80
   FFFFFF84 FFFFFFC2 00 17 02 02 54 31 11 02 18 1B 10 02 10 19
   09 02 1A 02 02 07 4E 6F 74 68 69 6E 67 10 02 10
   1C 09 02 1D 02 02 03 41 6E 79 10 02 10 1F 09 02
   20 02 02 0B 53 63 61 6C 61 4F 62 6A 65 63 74 10
   02 10 22 09 02 23 02 02 07 50 72 6F 64 75 63 74
   08 08 25 00 FFFFFF82 FFFFFFCA FFFFFF80 FFFFFF84 00 26 01 02 5F 31 15 01
   13 08 08 28 00 FFFFFF82 FFFFFF88 FFFFFFA0 FFFFFF80 04 13 01 03 5F 31 20
   08 05 2A 00 FFFFFF84 00 2B 01 06 3C 69 6E 69 74 3E 14
   02 2C 2D 10 03 10 00 13 08 05 25 29 FFFFFFC0 00 13 08
   05 2F 00 FFFFFF84 20 30 01 08 74 6F 53 74 72 69 6E 67
   14 01 31 10 02 08 32 09 02 33 09 02 06 53 74 72
   69 6E 67 08 07 35 00 FFFFFF81 FFFFFF80 FFFFFF84 00 36 01 04 63 6F
   70 79 15 02 37 3A 14 02 38 3B 10 03 10 00 39 10
   02 14 3A 04 08 16 34 FFFFFF84 FFFFFF80 FFFFFF80 FFFFFFC2 00 17 08 08 3C
   25 34 FFFFFF90 FFFFFF80 FFFFFFC0 00 39 08 07 3D 00 FFFFFF91 FFFFFF80 FFFFFF84 00 3E
   01 0E 63 6F 70 79 24 64 65 66 61 75 6C 74 24 31
   15 02 13 3F 04 08 16 3C FFFFFF84 FFFFFF80 FFFFFF80 FFFFFFC2 00 17 08 08
   41 00 FFFFFF84 FFFFFF80 FFFFFF80 FFFFFF84 20 42 01 08 68 61 73 68 43 6F
   64 65 14 01 43 10 02 10 44 09 02 45 02 02 03 49
   6E 74 08 08 47 00 FFFFFF84 FFFFFF80 FFFFFF80 FFFFFF84 20 48 01 06 65 71
   75 61 6C 73 14 02 49 4C 10 02 10 4A 09 02 4B 02
   02 07 42 6F 6F 6C 65 61 6E 08 07 4D 46 FFFFFF81 FFFFFF80 FFFFFFC0
   00 1B 01 03 78 24 31 08 08 4F 00 FFFFFF84 FFFFFF80 FFFFFF80 FFFFFF84 20
   50 01 0D 70 72 6F 64 75 63 74 50 72 65 66 69 78
   15 01 31 08 08 52 00 FFFFFF84 FFFFFF80 FFFFFF80 FFFFFF84 20 53 01 08 63
   61 6E 45 71 75 61 6C 14 02 49 54 08 07 4D 51 FFFFFF81
   FFFFFF80 FFFFFFC0 00 1B 28 02 00 56 10 02 10 57 09 02 58 02
   02 0C 73 65 72 69 61 6C 69 7A 61 62 6C 65 07 07
   5A 02 FFFFFF81 FFFFFF80 FFFFFF88 02 5B 01 06 54 75 70 6C 65 31 10
   02 10 5C 06 08 01 02 FFFFFF84 FFFFFF81 FFFFFF80 FFFFFF88 02 5D 13 03 5C
   07 1E 08 05 2A 5C FFFFFF84 00 5F 14 01 5B 08 07 61 5C
   FFFFFF81 FFFFFF80 FFFFFF84 40 62 01 05 61 70 70 6C 79 15 02 63 66
   14 02 64 67 10 03 10 00 65 10 02 14 66 04 08 16
   60 FFFFFF84 FFFFFF80 FFFFFF80 FFFFFFC2 00 17 08 05 25 60 FFFFFFC0 00 65 08 07
   69 5C FFFFFF81 FFFFFF80 FFFFFF84 40 6A 01 07 75 6E 61 70 70 6C 79
   15 02 6B 70 14 02 6C 71 10 03 10 6D 6F 09 02 6E
   02 02 04 53 6F 6D 65 10 02 14 70 04 08 16 68 FFFFFF84
   FFFFFF80 FFFFFF80 FFFFFFC2 00 17 08 05 72 68 FFFFFFC0 00 73 01 03 78 24
   30 10 03 10 00 6F 
  minor version: 0
  major version: 49
  Constant pool:
const #1 = Asciz	SourceFile;
const #2 = Asciz	Tuple1.scala;
const #3 = Asciz	_1;
const #4 = Asciz	Ljava/lang/Object;;
const #5 = Asciz	TT1;;
const #6 = Asciz	Signature;
const #7 = Asciz	<init>;
const #8 = Asciz	(Ljava/lang/Object;)V;
const #9 = Asciz	Code;
const #10 = Asciz	LineNumberTable;
const #11 = Asciz	scala/Tuple1;
const #12 = class	#11;	//  scala/Tuple1
const #13 = NameAndType	#3:#4;//  _1:Ljava/lang/Object;
const #14 = Field	#12.#13;	//  scala/Tuple1._1:Ljava/lang/Object;
const #15 = Asciz	java/lang/Object;
const #16 = class	#15;	//  java/lang/Object
const #17 = Asciz	()V;
const #18 = NameAndType	#7:#17;//  "<init>":()V
const #19 = Method	#16.#18;	//  java/lang/Object."<init>":()V
const #20 = Asciz	scala/Product$class;
const #21 = class	#20;	//  scala/Product$class
const #22 = Asciz	$init$;
const #23 = Asciz	(Lscala/Product;)V;
const #24 = NameAndType	#22:#23;//  $init$:(Lscala/Product;)V
const #25 = Method	#21.#24;	//  scala/Product$class.$init$:(Lscala/Product;)V
const #26 = Asciz	scala/Product1$class;
const #27 = class	#26;	//  scala/Product1$class
const #28 = Asciz	(Lscala/Product1;)V;
const #29 = NameAndType	#22:#28;//  $init$:(Lscala/Product1;)V
const #30 = Method	#27.#29;	//  scala/Product1$class.$init$:(Lscala/Product1;)V
const #31 = Asciz	this;
const #32 = Asciz	Lscala/Tuple1;;
const #33 = Asciz	LocalVariableTable;
const #34 = Asciz	(TT1;)V;
const #35 = Asciz	gd1$1;
const #36 = Asciz	(Ljava/lang/Object;)Z;
const #37 = Asciz	()Ljava/lang/Object;;
const #38 = NameAndType	#3:#37;//  _1:()Ljava/lang/Object;
const #39 = Method	#12.#38;	//  scala/Tuple1._1:()Ljava/lang/Object;
const #40 = Asciz	scala/runtime/BoxesRunTime;
const #41 = class	#40;	//  scala/runtime/BoxesRunTime
const #42 = Asciz	equals;
const #43 = Asciz	(Ljava/lang/Object;Ljava/lang/Object;)Z;
const #44 = NameAndType	#42:#43;//  equals:(Ljava/lang/Object;Ljava/lang/Object;)Z
const #45 = Method	#41.#44;	//  scala/runtime/BoxesRunTime.equals:(Ljava/lang/Object;Ljava/lang/Object;)Z
const #46 = Asciz	canEqual;
const #47 = Asciz	productPrefix;
const #48 = Asciz	()Ljava/lang/String;;
const #49 = Asciz	Tuple1;
const #50 = String	#49;	//  Tuple1
const #51 = NameAndType	#35:#36;//  gd1$1:(Ljava/lang/Object;)Z
const #52 = Method	#12.#51;	//  scala/Tuple1.gd1$1:(Ljava/lang/Object;)Z
const #53 = Asciz	scala/Product;
const #54 = class	#53;	//  scala/Product
const #55 = NameAndType	#46:#36;//  canEqual:(Ljava/lang/Object;)Z
const #56 = InterfaceMethod	#54.#55;	//  scala/Product.canEqual:(Ljava/lang/Object;)Z
const #57 = Asciz	temp1;
const #58 = Asciz	temp2;
const #59 = Asciz	temp3;
const #60 = Asciz	_1$1;
const #61 = Asciz	hashCode;
const #62 = Asciz	()I;
const #63 = Asciz	scala/runtime/ScalaRunTime$;
const #64 = class	#63;	//  scala/runtime/ScalaRunTime$
const #65 = Asciz	MODULE$;
const #66 = Asciz	Lscala/runtime/ScalaRunTime$;;
const #67 = NameAndType	#65:#66;//  MODULE$:Lscala/runtime/ScalaRunTime$;
const #68 = Field	#64.#67;	//  scala/runtime/ScalaRunTime$.MODULE$:Lscala/runtime/ScalaRunTime$;
const #69 = Asciz	_hashCode;
const #70 = Asciz	(Lscala/Product;)I;
const #71 = NameAndType	#69:#70;//  _hashCode:(Lscala/Product;)I
const #72 = Method	#64.#71;	//  scala/runtime/ScalaRunTime$._hashCode:(Lscala/Product;)I
const #73 = Asciz	copy$default$1;
const #74 = Asciz	copy;
const #75 = Asciz	(Ljava/lang/Object;)Lscala/Tuple1;;
const #76 = NameAndType	#7:#8;//  "<init>":(Ljava/lang/Object;)V
const #77 = Method	#12.#76;	//  scala/Tuple1."<init>":(Ljava/lang/Object;)V
const #78 = Asciz	toString;
const #79 = Asciz	scala/collection/mutable/StringBuilder;
const #80 = class	#79;	//  scala/collection/mutable/StringBuilder
const #81 = Method	#80.#18;	//  scala/collection/mutable/StringBuilder."<init>":()V
const #82 = Asciz	(;
const #83 = String	#82;	//  (
const #84 = Asciz	append;
const #85 = Asciz	(Ljava/lang/Object;)Lscala/collection/mutable/StringBuilder;;
const #86 = NameAndType	#84:#85;//  append:(Ljava/lang/Object;)Lscala/collection/mutable/StringBuilder;
const #87 = Method	#80.#86;	//  scala/collection/mutable/StringBuilder.append:(Ljava/lang/Object;)Lscala/collection/mutable/StringBuilder;
const #88 = Asciz	);
const #89 = String	#88;	//  )
const #90 = NameAndType	#78:#48;//  toString:()Ljava/lang/String;
const #91 = Method	#80.#90;	//  scala/collection/mutable/StringBuilder.toString:()Ljava/lang/String;
const #92 = Asciz	()TT1;;
const #93 = Asciz	productElements;
const #94 = Asciz	()Lscala/collection/Iterator;;
const #95 = Asciz	(Lscala/Product;)Lscala/collection/Iterator;;
const #96 = NameAndType	#93:#95;//  productElements:(Lscala/Product;)Lscala/collection/Iterator;
const #97 = Method	#21.#96;	//  scala/Product$class.productElements:(Lscala/Product;)Lscala/collection/Iterator;
const #98 = Asciz	productIterator;
const #99 = NameAndType	#98:#95;//  productIterator:(Lscala/Product;)Lscala/collection/Iterator;
const #100 = Method	#21.#99;	//  scala/Product$class.productIterator:(Lscala/Product;)Lscala/collection/Iterator;
const #101 = Asciz	productElement;
const #102 = Asciz	(I)Ljava/lang/Object;;
const #103 = Asciz	(Lscala/Product1;I)Ljava/lang/Object;;
const #104 = NameAndType	#101:#103;//  productElement:(Lscala/Product1;I)Ljava/lang/Object;
const #105 = Method	#27.#104;	//  scala/Product1$class.productElement:(Lscala/Product1;I)Ljava/lang/Object;
const #106 = Asciz	n;
const #107 = Asciz	I;
const #108 = Asciz	java/lang/IndexOutOfBoundsException;
const #109 = class	#108;	//  java/lang/IndexOutOfBoundsException
const #110 = Asciz	Exceptions;
const #111 = Asciz	productArity;
const #112 = Asciz	(Lscala/Product1;)I;
const #113 = NameAndType	#111:#112;//  productArity:(Lscala/Product1;)I
const #114 = Method	#27.#113;	//  scala/Product1$class.productArity:(Lscala/Product1;)I
const #115 = Asciz	<T1:Ljava/lang/Object;>Ljava/lang/Object;Lscala/Product1<TT1;>;Lscala/ScalaObject;Lscala/Product;;
const #116 = Asciz	ScalaSig;
const #117 = Asciz	scala/Product1;
const #118 = class	#117;	//  scala/Product1
const #119 = Asciz	scala/ScalaObject;
const #120 = class	#119;	//  scala/ScalaObject
const #121 = Asciz	java/io/Serializable;
const #122 = class	#121;	//  java/io/Serializable

{
public scala.Tuple1(java.lang.Object);
  Code:
   Stack=2, Locals=2, Args_size=2
   0:	aload_0
   1:	aload_1
   2:	putfield	#14; //Field _1:Ljava/lang/Object;
   5:	aload_0
   6:	invokespecial	#19; //Method java/lang/Object."<init>":()V
   9:	aload_0
   10:	invokestatic	#25; //Method scala/Product$class.$init$:(Lscala/Product;)V
   13:	aload_0
   14:	invokestatic	#30; //Method scala/Product1$class.$init$:(Lscala/Product1;)V
   17:	return
  LineNumberTable: 
   line 20: 0

  LocalVariableTable: 
   Start  Length  Slot  Name   Signature
   0      18      0    this       Lscala/Tuple1;
   0      18      1    _1       Ljava/lang/Object;

  Signature: length = 0x2
   00 22 

public boolean canEqual(java.lang.Object);
  Code:
   Stack=1, Locals=2, Args_size=2
   0:	aload_1
   1:	instanceof	#12; //class scala/Tuple1
   4:	ireturn
  LineNumberTable: 
   line 20: 0


public java.lang.String productPrefix();
  Code:
   Stack=1, Locals=1, Args_size=1
   0:	ldc	#50; //String Tuple1
   2:	areturn
  LineNumberTable: 
   line 20: 0


public boolean equals(java.lang.Object);
  Code:
   Stack=2, Locals=6, Args_size=2
   0:	aload_0
   1:	aload_1
   2:	if_acmpeq	59
   5:	aload_1
   6:	astore_2
   7:	aload_2
   8:	instanceof	#12; //class scala/Tuple1
   11:	ifeq	55
   14:	aload_2
   15:	checkcast	#12; //class scala/Tuple1
   18:	astore_3
   19:	aload_3
   20:	invokevirtual	#39; //Method _1:()Ljava/lang/Object;
   23:	astore	4
   25:	aload	4
   27:	astore	5
   29:	aload_0
   30:	aload	5
   32:	invokespecial	#52; //Method gd1$1:(Ljava/lang/Object;)Z
   35:	ifeq	51
   38:	aload_1
   39:	checkcast	#12; //class scala/Tuple1
   42:	aload_0
   43:	invokeinterface	#56,  2; //InterfaceMethod scala/Product.canEqual:(Ljava/lang/Object;)Z
   48:	goto	56
   51:	iconst_0
   52:	goto	56
   55:	iconst_0
   56:	ifeq	63
   59:	iconst_1
   60:	goto	64
   63:	iconst_0
   64:	ireturn
  LineNumberTable: 
   line 20: 0
   line 26: 51
   line 20: 56

  LocalVariableTable: 
   Start  Length  Slot  Name   Signature
   0      65      0    this       Lscala/Tuple1;
   7      52      2    temp1       Ljava/lang/Object;
   19      36      3    temp2       Lscala/Tuple1;
   25      30      4    temp3       Ljava/lang/Object;
   29      26      5    _1$1       Ljava/lang/Object;


public int hashCode();
  Code:
   Stack=2, Locals=1, Args_size=1
   0:	getstatic	#68; //Field scala/runtime/ScalaRunTime$.MODULE$:Lscala/runtime/ScalaRunTime$;
   3:	aload_0
   4:	invokevirtual	#72; //Method scala/runtime/ScalaRunTime$._hashCode:(Lscala/Product;)I
   7:	ireturn
  LineNumberTable: 
   line 20: 0


public java.lang.Object copy$default$1();
  Code:
   Stack=1, Locals=1, Args_size=1
   0:	aload_0
   1:	invokevirtual	#39; //Method _1:()Ljava/lang/Object;
   4:	areturn
  LineNumberTable: 
   line 20: 0


public scala.Tuple1 copy(java.lang.Object);
  Code:
   Stack=3, Locals=2, Args_size=2
   0:	new	#12; //class scala/Tuple1
   3:	dup
   4:	aload_1
   5:	invokespecial	#77; //Method "<init>":(Ljava/lang/Object;)V
   8:	areturn
  LineNumberTable: 
   line 20: 0

  LocalVariableTable: 
   Start  Length  Slot  Name   Signature
   0      9      0    this       Lscala/Tuple1;
   0      9      1    _1       Ljava/lang/Object;


public java.lang.String toString();
  Code:
   Stack=2, Locals=1, Args_size=1
   0:	new	#80; //class scala/collection/mutable/StringBuilder
   3:	dup
   4:	invokespecial	#81; //Method scala/collection/mutable/StringBuilder."<init>":()V
   7:	ldc	#83; //String (
   9:	invokevirtual	#87; //Method scala/collection/mutable/StringBuilder.append:(Ljava/lang/Object;)Lscala/collection/mutable/StringBuilder;
   12:	aload_0
   13:	invokevirtual	#39; //Method _1:()Ljava/lang/Object;
   16:	invokevirtual	#87; //Method scala/collection/mutable/StringBuilder.append:(Ljava/lang/Object;)Lscala/collection/mutable/StringBuilder;
   19:	ldc	#89; //String )
   21:	invokevirtual	#87; //Method scala/collection/mutable/StringBuilder.append:(Ljava/lang/Object;)Lscala/collection/mutable/StringBuilder;
   24:	invokevirtual	#91; //Method scala/collection/mutable/StringBuilder.toString:()Ljava/lang/String;
   27:	areturn
  LineNumberTable: 
   line 23: 0


public java.lang.Object _1();
  Code:
   Stack=1, Locals=1, Args_size=1
   0:	aload_0
   1:	getfield	#14; //Field _1:Ljava/lang/Object;
   4:	areturn
  LineNumberTable: 
   line 20: 0

  Signature: length = 0x2
   00 5C 

public scala.collection.Iterator productElements();
  Code:
   Stack=1, Locals=1, Args_size=1
   0:	aload_0
   1:	invokestatic	#97; //Method scala/Product$class.productElements:(Lscala/Product;)Lscala/collection/Iterator;
   4:	areturn
  LineNumberTable: 
   line 20: 0


public scala.collection.Iterator productIterator();
  Code:
   Stack=1, Locals=1, Args_size=1
   0:	aload_0
   1:	invokestatic	#100; //Method scala/Product$class.productIterator:(Lscala/Product;)Lscala/collection/Iterator;
   4:	areturn
  LineNumberTable: 
   line 20: 0


public java.lang.Object productElement(int)   throws java.lang.IndexOutOfBoundsException;
  Code:
   Stack=2, Locals=2, Args_size=2
   0:	aload_0
   1:	iload_1
   2:	invokestatic	#105; //Method scala/Product1$class.productElement:(Lscala/Product1;I)Ljava/lang/Object;
   5:	areturn
  LineNumberTable: 
   line 20: 0

  LocalVariableTable: 
   Start  Length  Slot  Name   Signature
   0      6      0    this       Lscala/Tuple1;
   0      6      1    n       I

  Exceptions: 
   throws java.lang.IndexOutOfBoundsException
public int productArity();
  Code:
   Stack=1, Locals=1, Args_size=1
   0:	aload_0
   1:	invokestatic	#114; //Method scala/Product1$class.productArity:(Lscala/Product1;)I
   4:	ireturn
  LineNumberTable: 
   line 20: 0


}

