Compiled from "Scopes.scala"
public interface scala.reflect.generic.Scopes extends scala.ScalaObject
  SourceFile: "Scopes.scala"
  ScalaSig: length = 0x19E
   05 00 48 06 09 01 02 FFFFFF84 FFFFFF90 FFFFFF80 FFFFFF81 00 09 44 02 06
   53 63 6F 70 65 73 0A 02 03 04 01 07 67 65 6E 65
   72 69 63 0A 02 05 06 01 07 72 65 66 6C 65 63 74
   0A 01 07 01 05 73 63 61 6C 61 03 00 13 03 00 0A
   12 10 02 0B 10 0D 01 0C 0A 02 0D 0E 01 04 6C 61
   6E 67 0A 01 0F 01 04 6A 61 76 61 09 02 11 0C 02
   06 4F 62 6A 65 63 74 10 02 13 14 0D 01 06 09 02
   15 06 02 0B 53 63 61 6C 61 4F 62 6A 65 63 74 08
   05 17 00 FFFFFF84 00 18 01 06 24 69 6E 69 74 24 14 01
   19 10 02 13 1A 09 02 1B 06 02 04 55 6E 69 74 06
   08 1D 00 FFFFFF84 FFFFFF80 FFFFFF80 FFFFFF81 00 1E 02 08 41 62 73 53 63
   6F 70 65 13 04 1C 0A 1F 12 10 03 20 28 2B 0E 02
   21 26 0E 02 22 25 0D 01 23 0A 02 24 08 01 06 3C
   72 6F 6F 74 3E 09 01 07 09 02 27 06 01 07 70 61
   63 6B 61 67 65 09 02 29 2A 02 08 49 74 65 72 61
   62 6C 65 0A 02 27 06 10 02 2C 2D 0D 01 00 09 02
   2E 2F 02 06 53 79 6D 62 6F 6C 09 02 30 02 02 07
   53 79 6D 62 6F 6C 73 08 05 32 1C FFFFFF84 00 33 01 06
   3C 69 6E 69 74 3E 14 01 34 10 02 2C 1C 08 05 36
   1C FFFFFF86 00 37 01 05 65 6E 74 65 72 14 02 2B 38 08
   05 39 35 FFFFFFC0 00 2B 01 03 73 79 6D 04 08 3B 00 FFFFFF84
   FFFFFF80 FFFFFF80 FFFFFF82 00 3C 02 05 53 63 6F 70 65 11 02 3D 34
   10 02 13 3E 09 02 3F 06 02 07 4E 6F 74 68 69 6E
   67 08 05 41 00 FFFFFF86 00 42 01 08 6E 65 77 53 63 6F
   70 65 14 01 43 10 02 2C 3A 10 02 45 46 0D 01 02
   09 02 47 02 02 08 55 6E 69 76 65 72 73 65 
  InnerClass: 
   public abstract AbsScope=class scala/reflect/generic/Scopes$AbsScope of class scala/reflect/generic/Scopes
  minor version: 0
  major version: 49
  Constant pool:
Asciz	SourceFile;
Asciz	Scopes.scala;
Asciz	newScope;
Asciz	()Lscala/reflect/generic/Scopes$AbsScope;;
Asciz	ScalaSig;
Asciz	InnerClasses;
Asciz	scala/reflect/generic/Scopes$AbsScope;
class	scala/reflect/generic/Scopes$AbsScope
Asciz	scala/reflect/generic/Scopes;
class	scala/reflect/generic/Scopes
Asciz	AbsScope;
Asciz	java/lang/Object;
class	java/lang/Object
Asciz	scala/ScalaObject;
class	scala/ScalaObject

{
public abstract scala.reflect.generic.Scopes$AbsScope newScope();
  Signature: ()Lscala/reflect/generic/Scopes$AbsScope;

}

