Compiled from "IterableTemplate.scala"
public interface scala.collection.generic.IterableTemplate extends scala.collection.generic.TraversableTemplate,scala.ScalaObject
  SourceFile: "IterableTemplate.scala"
  Signature: length = 0x2
   00 2E 
  ScalaSig: length = 0x552
   05 00 FFFFFF81 44 06 07 01 02 FFFFFF90 FFFFFF80 FFFFFF81 00 09 02 10 49
   74 65 72 61 62 6C 65 54 65 6D 70 6C 61 74 65 0A
   02 03 04 01 07 67 65 6E 65 72 69 63 0A 02 05 06
   01 0A 63 6F 6C 6C 65 63 74 69 6F 6E 0A 01 07 01
   05 73 63 61 6C 61 03 00 15 03 0A 19 24 13 04 00
   0B 13 2F 10 02 0C 11 0D 01 0D 0A 02 0E 0F 01 04
   6C 61 6E 67 0A 01 10 01 04 6A 61 76 61 09 02 12
   0D 02 06 4F 62 6A 65 63 74 10 04 14 15 17 23 0D
   01 02 09 02 16 02 02 13 54 72 61 76 65 72 73 61
   62 6C 65 54 65 6D 70 6C 61 74 65 10 02 18 19 0C
   00 04 08 1A 00 FFFFFF84 FFFFFF80 FFFFFF84 FFFFFFC2 00 1B 02 01 41 11 02
   1C 20 10 02 1D 1E 0D 01 06 09 02 1F 06 02 07 4E
   6F 74 68 69 6E 67 10 02 1D 21 09 02 22 06 02 03
   41 6E 79 10 02 18 24 04 08 25 00 FFFFFF84 FFFFFF80 FFFFFF84 FFFFFFC2 00
   26 02 04 54 68 69 73 11 02 1C 27 12 03 28 2A 2B
   06 08 29 02 FFFFFF84 FFFFFF80 FFFFFF80 FFFFFF80 00 27 02 0C 3C 72 65 66
   69 6E 65 6D 65 6E 74 3E 10 04 14 00 17 23 10 03
   2C 2D 17 0D 01 04 09 02 2E 04 02 08 49 74 65 72
   61 62 6C 65 10 02 1D 30 09 02 31 06 02 0B 53 63
   61 6C 61 4F 62 6A 65 63 74 08 05 33 00 FFFFFF84 00 34
   01 06 24 69 6E 69 74 24 14 01 35 10 02 1D 36 09
   02 37 06 02 04 55 6E 69 74 08 05 39 00 FFFFFF86 00 3A
   01 08 69 74 65 72 61 74 6F 72 15 01 3B 10 03 2C
   3C 17 09 02 3D 04 02 08 49 74 65 72 61 74 6F 72
   08 05 3F 00 FFFFFF84 00 3A 01 08 65 6C 65 6D 65 6E 74
   73 28 03 3E 41 44 10 02 1D 42 09 02 43 06 02 0A
   64 65 70 72 65 63 61 74 65 64 21 01 45 01 16 75
   73 65 20 60 69 74 65 72 61 74 6F 72 27 20 69 6E
   73 74 65 61 64 08 05 47 00 FFFFFF84 00 48 01 07 66 6F
   72 65 61 63 68 15 02 49 50 14 02 35 4A 08 05 4B
   46 FFFFFFC0 00 4C 01 01 66 10 04 1D 4D 17 4F 09 02 4E
   06 02 09 46 75 6E 63 74 69 6F 6E 31 10 02 18 50
   04 08 51 46 FFFFFF84 FFFFFF80 FFFFFF80 FFFFFFC2 00 1B 02 01 55 08 05 53
   00 FFFFFF84 20 54 01 07 69 73 45 6D 70 74 79 15 01 55
   10 02 1D 56 09 02 57 06 02 07 42 6F 6F 6C 65 61
   6E 08 05 59 00 FFFFFF84 20 5A 01 09 66 6F 6C 64 52 69
   67 68 74 15 02 5B 5E 14 02 5C 65 14 02 5D 60 10
   02 18 5E 04 08 5F 58 FFFFFF84 FFFFFF80 FFFFFF80 FFFFFFC2 00 1B 02 01 42
   08 05 61 58 FFFFFFC0 00 62 01 02 6F 70 10 05 1D 63 17
   5D 5D 09 02 64 06 02 09 46 75 6E 63 74 69 6F 6E
   32 08 05 66 58 FFFFFFC0 00 5D 01 01 7A 08 05 68 00 FFFFFF84
   20 69 01 0B 72 65 64 75 63 65 52 69 67 68 74 15
   02 6A 6C 14 02 6B 6E 10 02 18 6C 04 08 5F 67 FFFFFF84
   FFFFFF80 FFFFFF80 FFFFFFC2 00 6D 11 02 17 20 08 05 61 67 FFFFFFC0 00 6F
   10 05 1D 63 17 6B 6B 08 05 71 00 FFFFFF84 20 72 01 0A
   74 6F 49 74 65 72 61 62 6C 65 15 01 2B 08 05 74
   00 FFFFFF84 20 75 01 04 68 65 61 64 15 01 17 08 05 77
   00 FFFFFF84 00 78 01 09 74 61 6B 65 52 69 67 68 74 14
   02 23 79 08 05 7A 76 FFFFFFC0 00 7B 01 01 6E 10 02 1D
   7C 09 02 7D 06 02 03 49 6E 74 08 06 7F 00 FFFFFF84 00
   FFFFFF81 00 01 09 64 72 6F 70 52 69 67 68 74 14 03 23
   FFFFFF81 01 08 05 7A 7E FFFFFFC0 00 7B 08 07 FFFFFF81 03 00 FFFFFF84 00
   FFFFFF81 04 01 0C 73 61 6D 65 45 6C 65 6D 65 6E 74 73
   15 04 FFFFFF81 05 FFFFFF81 0A 14 03 55 FFFFFF81 06 08 08 FFFFFF81 07 FFFFFF81
   02 FFFFFFC0 00 FFFFFF81 08 01 04 74 68 61 74 10 04 2C 2D FFFFFF81
   09 10 03 18 FFFFFF81 0A 04 09 5F FFFFFF81 02 FFFFFF84 FFFFFF80 FFFFFF80 FFFFFFC2 00
   6D 08 07 FFFFFF81 0C 00 FFFFFF84 20 FFFFFF81 0D 01 08 74 6F 53 74
   72 65 61 6D 15 02 FFFFFF81 0E 10 05 FFFFFF81 0F FFFFFF81 17 17 0E
   04 FFFFFF81 10 FFFFFF81 15 0E 04 FFFFFF81 11 FFFFFF81 14 0D 02 FFFFFF81 12 0A
   03 FFFFFF81 13 08 01 06 3C 72 6F 6F 74 3E 09 01 07 09
   03 FFFFFF81 16 06 01 07 70 61 63 6B 61 67 65 09 04 FFFFFF81
   18 FFFFFF81 19 02 06 53 74 72 65 61 6D 0A 03 FFFFFF81 16 06
   08 07 FFFFFF81 1B 00 FFFFFF84 20 FFFFFF81 1C 01 04 76 69 65 77 15
   02 FFFFFF81 1D 12 05 FFFFFF81 1E 0B FFFFFF81 1F 06 0A 29 FFFFFF81 1A FFFFFF84
   FFFFFF80 FFFFFF80 FFFFFF80 00 FFFFFF81 1D 10 05 14 FFFFFF81 20 17 23 09 03 FFFFFF81
   21 02 02 0C 49 74 65 72 61 62 6C 65 56 69 65 77
   08 07 FFFFFF81 1B 00 FFFFFF84 20 FFFFFF81 23 14 06 FFFFFF81 1F FFFFFF81 24 FFFFFF81
   26 08 07 FFFFFF81 25 FFFFFF81 22 FFFFFFC0 00 7B 01 04 66 72 6F 6D
   08 07 FFFFFF81 27 FFFFFF81 22 FFFFFFC0 00 7B 01 05 75 6E 74 69 6C
   08 06 FFFFFF81 29 00 FFFFFF84 00 75 01 05 66 69 72 73 74 28
   05 FFFFFF81 28 41 FFFFFF81 2B 21 02 FFFFFF81 2C 01 12 75 73 65 20
   60 68 65 61 64 27 20 69 6E 73 74 65 61 64 08 07
   FFFFFF81 2E 00 FFFFFF84 00 FFFFFF81 2F 01 0B 66 69 72 73 74 4F 70
   74 69 6F 6E 15 02 FFFFFF81 30 10 04 1D FFFFFF81 31 17 09 03
   FFFFFF81 32 06 02 06 4F 70 74 69 6F 6E 28 05 FFFFFF81 2D 41
   FFFFFF81 34 21 02 FFFFFF81 35 01 18 75 73 65 20 60 68 65 61
   64 4F 70 74 69 6F 6E 27 20 69 6E 73 74 65 61 64
   08 07 FFFFFF81 37 00 FFFFFF84 00 FFFFFF81 38 01 05 74 6F 53 65 71
   15 02 FFFFFF81 39 10 04 2C FFFFFF81 3A 17 09 03 FFFFFF81 3B 04 02
   08 53 65 71 75 65 6E 63 65 28 05 FFFFFF81 36 41 FFFFFF81 3D
   21 02 FFFFFF81 3E 01 18 75 73 65 20 60 74 6F 53 65 71
   75 65 6E 63 65 27 20 69 6E 73 74 65 61 64 08 07
   FFFFFF81 40 00 FFFFFF84 00 FFFFFF81 1C 01 0A 70 72 6F 6A 65 63 74
   69 6F 6E 28 05 FFFFFF81 3F 41 FFFFFF81 42 21 02 FFFFFF81 43 01 12
   75 73 65 20 60 76 69 65 77 27 20 69 6E 73 74 65
   61 64 
  minor version: 0
  major version: 49
  Constant pool:
const #1 = Asciz	SourceFile;
const #2 = Asciz	IterableTemplate.scala;
const #3 = Asciz	projection;
const #4 = Asciz	()Ljava/lang/Object;;
const #5 = Asciz	toSeq;
const #6 = Asciz	()Lscala/collection/Sequence;;
const #7 = Asciz	()Lscala/collection/Sequence<TA;>;;
const #8 = Asciz	Signature;
const #9 = Asciz	firstOption;
const #10 = Asciz	()Lscala/Option;;
const #11 = Asciz	()Lscala/Option<TA;>;;
const #12 = Asciz	first;
const #13 = Asciz	()TA;;
const #14 = Asciz	view;
const #15 = Asciz	(II)Lscala/collection/generic/IterableView;;
const #16 = Asciz	(II)Lscala/collection/generic/IterableView<TA;TThis;>;;
const #17 = Asciz	toStream;
const #18 = Asciz	()Lscala/collection/immutable/Stream;;
const #19 = Asciz	()Lscala/collection/immutable/Stream<TA;>;;
const #20 = Asciz	sameElements;
const #21 = Asciz	(Lscala/collection/Iterable;)Z;
const #22 = Asciz	<B:Ljava/lang/Object;>(Lscala/collection/Iterable<TB;>;)Z;
const #23 = Asciz	dropRight;
const #24 = Asciz	(I)Lscala/collection/generic/IterableTemplate;;
const #25 = Asciz	(I)TThis;;
const #26 = Asciz	takeRight;
const #27 = Asciz	head;
const #28 = Asciz	toIterable;
const #29 = Asciz	()Lscala/collection/Iterable;;
const #30 = Asciz	()Lscala/collection/Iterable<TA;>;;
const #31 = Asciz	reduceRight;
const #32 = Asciz	(Lscala/Function2;)Ljava/lang/Object;;
const #33 = Asciz	<B:Ljava/lang/Object;>(Lscala/Function2<TA;TB;TB;>;)TB;;
const #34 = Asciz	foldRight;
const #35 = Asciz	(Ljava/lang/Object;Lscala/Function2;)Ljava/lang/Object;;
const #36 = Asciz	<B:Ljava/lang/Object;>(TB;Lscala/Function2<TA;TB;TB;>;)TB;;
const #37 = Asciz	isEmpty;
const #38 = Asciz	()Z;
const #39 = Asciz	foreach;
const #40 = Asciz	(Lscala/Function1;)V;
const #41 = Asciz	<U:Ljava/lang/Object;>(Lscala/Function1<TA;TU;>;)V;
const #42 = Asciz	elements;
const #43 = Asciz	()Lscala/collection/Iterator;;
const #44 = Asciz	()Lscala/collection/Iterator<TA;>;;
const #45 = Asciz	iterator;
const #46 = Asciz	<A:Ljava/lang/Object;This::Lscala/collection/generic/IterableTemplate<TA;TThis;>;:Lscala/collection/Iterable<TA;>;>Ljava/lang/Object;Lscala/collection/generic/TraversableTemplate<TA;TThis;>;Lscala/ScalaObject;;
const #47 = Asciz	ScalaSig;
const #48 = Asciz	scala/collection/generic/IterableTemplate;
const #49 = class	#48;	//  scala/collection/generic/IterableTemplate
const #50 = Asciz	java/lang/Object;
const #51 = class	#50;	//  java/lang/Object
const #52 = Asciz	scala/collection/generic/TraversableTemplate;
const #53 = class	#52;	//  scala/collection/generic/TraversableTemplate
const #54 = Asciz	scala/ScalaObject;
const #55 = class	#54;	//  scala/ScalaObject

{
public abstract java.lang.Object projection();

public abstract scala.collection.Sequence toSeq();
  Signature: length = 0x2
   00 07 

public abstract scala.Option firstOption();
  Signature: length = 0x2
   00 0B 

public abstract java.lang.Object first();
  Signature: length = 0x2
   00 0D 

public abstract scala.collection.generic.IterableView view(int, int);
  Signature: length = 0x2
   00 10 

public abstract java.lang.Object view();

public abstract scala.collection.immutable.Stream toStream();
  Signature: length = 0x2
   00 13 

public abstract boolean sameElements(scala.collection.Iterable);
  Signature: length = 0x2
   00 16 

public abstract scala.collection.generic.IterableTemplate dropRight(int);
  Signature: length = 0x2
   00 19 

public abstract scala.collection.generic.IterableTemplate takeRight(int);
  Signature: length = 0x2
   00 19 

public abstract java.lang.Object head();
  Signature: length = 0x2
   00 0D 

public abstract scala.collection.Iterable toIterable();
  Signature: length = 0x2
   00 1E 

public abstract java.lang.Object reduceRight(scala.Function2);
  Signature: length = 0x2
   00 21 

public abstract java.lang.Object foldRight(java.lang.Object, scala.Function2);
  Signature: length = 0x2
   00 24 

public abstract boolean isEmpty();

public abstract void foreach(scala.Function1);
  Signature: length = 0x2
   00 29 

public abstract scala.collection.Iterator elements();
  Signature: length = 0x2
   00 2C 

public abstract scala.collection.Iterator iterator();
  Signature: length = 0x2
   00 2C 

}

