Compiled from "TraversableViewTemplate.scala"
public interface scala.collection.generic.TraversableViewTemplate extends scala.collection.Traversable,scala.collection.generic.TraversableTemplate,scala.ScalaObject
  SourceFile: "TraversableViewTemplate.scala"
  Signature: length = 0x2
   00 3B 
  ScalaSig: length = 0xB80
   05 00 FFFFFF83 06 06 07 01 02 FFFFFF90 FFFFFF80 FFFFFF81 00 09 02 17 54
   72 61 76 65 72 73 61 62 6C 65 56 69 65 77 54 65
   6D 70 6C 61 74 65 0A 02 03 04 01 07 67 65 6E 65
   72 69 63 0A 02 05 06 01 0A 63 6F 6C 6C 65 63 74
   69 6F 6E 0A 01 07 01 05 73 63 61 6C 61 03 00 15
   04 0A 19 32 28 13 05 00 0B 13 23 3B 10 02 0C 11
   0D 01 0D 0A 02 0E 0F 01 04 6C 61 6E 67 0A 01 10
   01 04 6A 61 76 61 09 02 12 0D 02 06 4F 62 6A 65
   63 74 10 03 14 15 17 0D 01 04 09 02 16 04 02 0B
   54 72 61 76 65 72 73 61 62 6C 65 10 02 18 19 0C
   00 04 08 1A 00 FFFFFF84 FFFFFF80 FFFFFF84 FFFFFFC2 00 1B 02 01 41 11 02
   1C 20 10 02 1D 1E 0D 01 06 09 02 1F 06 02 07 4E
   6F 74 68 69 6E 67 10 02 1D 21 09 02 22 06 02 03
   41 6E 79 10 04 24 25 17 27 0D 01 02 09 02 26 02
   02 13 54 72 61 76 65 72 73 61 62 6C 65 54 65 6D
   70 6C 61 74 65 10 02 18 28 04 08 29 00 FFFFFF84 FFFFFF80 FFFFFF84
   FFFFFFC2 00 2A 02 04 54 68 69 73 11 02 1C 2B 12 03 2C
   2E 3A 06 08 2D 02 FFFFFF84 FFFFFF80 FFFFFF80 FFFFFF80 00 2B 02 0C 3C 72
   65 66 69 6E 65 6D 65 6E 74 3E 10 04 24 2F 17 31
   09 02 30 02 02 0F 54 72 61 76 65 72 73 61 62 6C
   65 56 69 65 77 10 02 18 32 04 08 33 00 FFFFFF84 FFFFFF80 FFFFFF84
   FFFFFFC2 00 34 02 04 43 6F 6C 6C 11 02 1C 35 30 02 36
   38 10 03 14 15 37 10 02 18 38 04 08 39 00 FFFFFF84 FFFFFF80
   FFFFFF80 FFFFFF82 00 1B 02 03 5F 24 31 10 05 24 00 17 31 27
   10 02 1D 3C 09 02 3D 06 02 0B 53 63 61 6C 61 4F
   62 6A 65 63 74 08 05 3F 00 FFFFFF84 00 40 01 06 24 69
   6E 69 74 24 14 01 41 10 02 1D 42 09 02 43 06 02
   04 55 6E 69 74 08 06 45 00 FFFFFFA0 FFFFFF84 28 46 01 0A 6E
   65 77 42 75 69 6C 64 65 72 15 01 47 10 04 24 48
   17 27 09 02 49 02 02 07 42 75 69 6C 64 65 72 08
   05 4B 00 FFFFFF86 08 4C 01 0A 75 6E 64 65 72 6C 79 69
   6E 67 15 01 31 08 05 4E 00 FFFFFF84 00 4F 01 05 66 6F
   72 63 65 15 03 50 5A 52 16 02 51 54 10 02 18 52
   04 08 53 4D FFFFFF84 FFFFFF80 FFFFFF80 FFFFFFC2 00 1B 02 04 54 68 61 74
   08 05 55 4D FFFFFFC0 01 56 01 02 62 66 10 05 24 57 59
   51 31 09 02 58 02 02 0E 42 75 69 6C 64 65 72 46
   61 63 74 6F 72 79 10 02 18 5A 04 08 5B 4D FFFFFF84 FFFFFF80
   FFFFFF80 FFFFFFC2 00 5C 02 01 42 11 02 17 20 06 07 5E 00 FFFFFF90
   FFFFFF80 FFFFFF81 00 5F 02 0B 54 72 61 6E 73 66 6F 72 6D 65
   64 15 02 60 63 13 04 5D 0B 61 3B 10 04 24 2F 62
   31 10 02 18 63 04 08 5B 5D FFFFFF84 FFFFFF80 FFFFFF84 FFFFFFC2 00 1B 08
   05 3F 5D FFFFFF84 00 40 08 08 4B 5D FFFFFF88 FFFFFFC2 FFFFFF80 FFFFFF84 00 4C
   08 08 67 5D FFFFFF88 FFFFFF80 FFFFFFA0 FFFFFFA0 04 31 01 0B 75 6E 64 65
   72 6C 79 69 6E 67 20 06 08 69 00 FFFFFF84 FFFFFF90 FFFFFF80 FFFFFF81 00
   6A 02 06 53 6C 69 63 65 64 13 04 68 0B 6B 3B 10
   03 6C 5D 17 0D 01 00 08 05 3F 68 FFFFFF84 00 40 08 07
   6F 68 FFFFFFC2 FFFFFFA0 FFFFFF86 08 70 01 04 66 72 6F 6D 15 01 71
   10 02 1D 72 09 02 73 06 02 03 49 6E 74 08 07 75
   68 FFFFFFC2 FFFFFFA0 FFFFFF86 08 70 01 05 75 6E 74 69 6C 08 05 77
   68 FFFFFF84 20 78 01 07 66 6F 72 65 61 63 68 15 03 79
   FFFFFF81 00 14 02 41 7A 08 05 7B 76 FFFFFFC0 00 7C 01 01 66
   10 04 1D 7D 17 7F 09 02 7E 06 02 09 46 75 6E 63
   74 69 6F 6E 31 10 03 18 FFFFFF81 00 04 09 FFFFFF81 01 76 FFFFFF84
   FFFFFF80 FFFFFF80 FFFFFFC2 00 1B 02 01 43 08 07 FFFFFF81 03 68 FFFFFF84 20 FFFFFF81
   04 01 0C 73 74 72 69 6E 67 50 72 65 66 69 78 15
   02 FFFFFF81 05 10 03 0C FFFFFF81 06 09 03 FFFFFF81 07 0D 02 06 53
   74 72 69 6E 67 08 07 FFFFFF81 09 68 FFFFFF84 20 FFFFFF81 0A 01 05
   73 6C 69 63 65 14 05 27 FFFFFF81 0B FFFFFF81 0D 08 07 FFFFFF81 0C
   FFFFFF81 08 FFFFFFC0 00 71 01 05 66 72 6F 6D 31 08 07 FFFFFF81 0E
   FFFFFF81 08 FFFFFFC0 00 71 01 06 75 6E 74 69 6C 31 06 09 FFFFFF81
   10 00 FFFFFF90 FFFFFF80 FFFFFF81 00 FFFFFF81 11 02 06 4D 61 70 70 65 64
   15 04 FFFFFF81 12 FFFFFF81 15 13 06 FFFFFF81 0F 0B FFFFFF81 13 3B 10 04
   6C 5D FFFFFF81 14 10 03 18 FFFFFF81 15 04 09 5B FFFFFF81 0F FFFFFF84 FFFFFF80
   FFFFFF80 FFFFFFC2 00 1B 08 06 3F FFFFFF81 0F FFFFFF84 00 40 08 0A FFFFFF81 18
   FFFFFF81 0F FFFFFFC2 FFFFFFA0 FFFFFF86 08 FFFFFF81 19 01 07 6D 61 70 70 69 6E
   67 15 02 FFFFFF81 1A 10 05 1D 7D 17 FFFFFF81 14 08 07 77 FFFFFF81
   0F FFFFFF84 20 FFFFFF81 1C 15 04 FFFFFF81 1D FFFFFF81 21 14 03 41 FFFFFF81 1E
   08 07 7B FFFFFF81 1B FFFFFFC0 00 FFFFFF81 1F 10 06 1D 7D FFFFFF81 14 FFFFFF81
   20 10 03 18 FFFFFF81 21 04 0A FFFFFF81 01 FFFFFF81 1B FFFFFF84 FFFFFF80 FFFFFF80 FFFFFFC2
   00 1B 08 08 FFFFFF81 03 FFFFFF81 0F FFFFFF84 20 FFFFFF81 04 06 09 FFFFFF81 24
   00 FFFFFF90 FFFFFF80 FFFFFF81 00 FFFFFF81 25 02 0A 46 6C 61 74 4D 61 70
   70 65 64 15 04 FFFFFF81 26 FFFFFF81 29 13 06 FFFFFF81 23 0B FFFFFF81 27
   3B 10 04 6C 5D FFFFFF81 28 10 03 18 FFFFFF81 29 04 09 5B FFFFFF81
   23 FFFFFF84 FFFFFF80 FFFFFF80 FFFFFFC2 00 1B 08 06 3F FFFFFF81 23 FFFFFF84 00 40 08
   0A FFFFFF81 18 FFFFFF81 23 FFFFFFC2 FFFFFFA0 FFFFFF86 08 FFFFFF81 2C 15 02 FFFFFF81 2D 10
   05 1D 7D 17 FFFFFF81 2E 10 04 14 15 FFFFFF81 28 08 07 77 FFFFFF81
   23 FFFFFF84 20 FFFFFF81 30 15 04 FFFFFF81 31 FFFFFF81 35 14 03 41 FFFFFF81 32
   08 07 7B FFFFFF81 2F FFFFFFC0 00 FFFFFF81 33 10 06 1D 7D FFFFFF81 28 FFFFFF81
   34 10 03 18 FFFFFF81 35 04 0A FFFFFF81 01 FFFFFF81 2F FFFFFF84 FFFFFF80 FFFFFF80 FFFFFFC2
   00 1B 08 08 FFFFFF81 03 FFFFFF81 23 FFFFFF84 20 FFFFFF81 04 06 09 FFFFFF81 38
   00 FFFFFF90 FFFFFF80 FFFFFF81 00 FFFFFF81 39 02 08 41 70 70 65 6E 64 65
   64 15 04 FFFFFF81 3A FFFFFF81 3D 13 06 FFFFFF81 37 0B FFFFFF81 3B 3B 10
   04 6C 5D FFFFFF81 3C 10 03 18 FFFFFF81 3D 04 09 5B FFFFFF81 37 FFFFFF84
   FFFFFF80 FFFFFF80 FFFFFFC2 00 5C 08 06 3F FFFFFF81 37 FFFFFF84 00 40 08 0A FFFFFF81
   40 FFFFFF81 37 FFFFFFC2 FFFFFFA0 FFFFFF86 08 FFFFFF81 41 01 04 72 65 73 74 15
   02 FFFFFF81 42 10 04 14 15 FFFFFF81 3C 08 07 77 FFFFFF81 37 FFFFFF84 20
   FFFFFF81 44 15 04 FFFFFF81 45 FFFFFF81 49 14 03 41 FFFFFF81 46 08 07 7B
   FFFFFF81 43 FFFFFFC0 00 FFFFFF81 47 10 06 1D 7D FFFFFF81 3C FFFFFF81 48 10 03
   18 FFFFFF81 49 04 0A FFFFFF81 01 FFFFFF81 43 FFFFFF84 FFFFFF80 FFFFFF80 FFFFFFC2 00 1B 08
   08 FFFFFF81 03 FFFFFF81 37 FFFFFF84 20 FFFFFF81 04 06 0A FFFFFF81 4C 00 FFFFFF84 FFFFFF90
   FFFFFF80 FFFFFF81 00 FFFFFF81 4D 02 08 46 69 6C 74 65 72 65 64 13
   05 FFFFFF81 4B 0B 6B 3B 08 06 3F FFFFFF81 4B FFFFFF84 00 40 08 0A
   FFFFFF81 50 FFFFFF81 4B FFFFFFC2 FFFFFFA0 FFFFFF86 08 FFFFFF81 51 01 04 70 72 65 64
   15 02 FFFFFF81 52 10 05 1D 7D 17 FFFFFF81 53 10 03 1D FFFFFF81 54
   09 03 FFFFFF81 55 06 02 07 42 6F 6F 6C 65 61 6E 08 07
   77 FFFFFF81 4B FFFFFF84 20 FFFFFF81 57 15 04 FFFFFF81 58 FFFFFF81 5C 14 03 41
   FFFFFF81 59 08 07 7B FFFFFF81 56 FFFFFFC0 00 FFFFFF81 5A 10 05 1D 7D 17
   FFFFFF81 5B 10 03 18 FFFFFF81 5C 04 0A FFFFFF81 01 FFFFFF81 56 FFFFFF84 FFFFFF80 FFFFFF80
   FFFFFFC2 00 1B 08 08 FFFFFF81 03 FFFFFF81 4B FFFFFF84 20 FFFFFF81 04 06 0A FFFFFF81
   5F 00 FFFFFF84 FFFFFF90 FFFFFF80 FFFFFF81 00 FFFFFF81 60 02 0A 54 61 6B 65 6E
   57 68 69 6C 65 13 05 FFFFFF81 5E 0B 6B 3B 08 06 3F FFFFFF81
   5E FFFFFF84 00 40 08 0A FFFFFF81 50 FFFFFF81 5E FFFFFFC2 FFFFFFA0 FFFFFF86 08 FFFFFF81 51
   08 07 77 FFFFFF81 5E FFFFFF84 20 FFFFFF81 64 15 04 FFFFFF81 65 FFFFFF81 69 14
   03 41 FFFFFF81 66 08 07 7B FFFFFF81 63 FFFFFFC0 00 FFFFFF81 67 10 05 1D
   7D 17 FFFFFF81 68 10 03 18 FFFFFF81 69 04 0A FFFFFF81 01 FFFFFF81 63 FFFFFF84
   FFFFFF80 FFFFFF80 FFFFFFC2 00 1B 08 08 FFFFFF81 03 FFFFFF81 5E FFFFFF84 20 FFFFFF81 04 06
   0A FFFFFF81 6C 00 FFFFFF84 FFFFFF90 FFFFFF80 FFFFFF81 00 FFFFFF81 6D 02 0C 44 72 6F
   70 70 65 64 57 68 69 6C 65 13 05 FFFFFF81 6B 0B 6B 3B
   08 06 3F FFFFFF81 6B FFFFFF84 00 40 08 0A FFFFFF81 50 FFFFFF81 6B FFFFFFC2 FFFFFFA0
   FFFFFF86 08 FFFFFF81 51 08 07 77 FFFFFF81 6B FFFFFF84 20 FFFFFF81 71 15 04 FFFFFF81
   72 FFFFFF81 76 14 03 41 FFFFFF81 73 08 07 7B FFFFFF81 70 FFFFFFC0 00 FFFFFF81
   74 10 05 1D 7D 17 FFFFFF81 75 10 03 18 FFFFFF81 76 04 0A FFFFFF81
   01 FFFFFF81 70 FFFFFF84 FFFFFF80 FFFFFF80 FFFFFFC2 00 1B 08 08 FFFFFF81 03 FFFFFF81 6B FFFFFF84
   20 FFFFFF81 04 08 07 FFFFFF81 79 00 FFFFFF84 08 FFFFFF81 7A 01 0B 6E 65
   77 41 70 70 65 6E 64 65 64 15 04 FFFFFF81 7B FFFFFF81 7E 14
   04 FFFFFF81 7C FFFFFF81 7F 10 04 6C 5D FFFFFF81 7D 10 03 18 FFFFFF81 7E
   04 09 5B FFFFFF81 78 FFFFFF84 FFFFFF80 FFFFFF80 FFFFFFC2 00 5C 08 08 FFFFFF82 00 FFFFFF81
   78 FFFFFFC0 00 FFFFFF82 01 01 04 74 68 61 74 10 04 14 15 FFFFFF81
   7D 08 07 FFFFFF82 03 00 FFFFFF84 08 FFFFFF82 04 01 09 6E 65 77 4D
   61 70 70 65 64 15 04 FFFFFF82 05 FFFFFF82 08 14 04 FFFFFF82 06 FFFFFF82
   09 10 04 6C 5D FFFFFF82 07 10 03 18 FFFFFF82 08 04 09 5B FFFFFF82
   02 FFFFFF84 FFFFFF80 FFFFFF80 FFFFFFC2 00 1B 08 07 7B FFFFFF82 02 FFFFFFC0 00 FFFFFF82 0A
   10 05 1D 7D 17 FFFFFF82 07 08 07 FFFFFF82 0C 00 FFFFFF84 08 FFFFFF82 0D
   01 0D 6E 65 77 46 6C 61 74 4D 61 70 70 65 64 15
   04 FFFFFF82 0E FFFFFF82 11 14 04 FFFFFF82 0F FFFFFF82 12 10 04 6C 5D FFFFFF82
   10 10 03 18 FFFFFF82 11 04 09 5B FFFFFF82 0B FFFFFF84 FFFFFF80 FFFFFF80 FFFFFFC2 00
   1B 08 07 7B FFFFFF82 0B FFFFFFC0 00 FFFFFF82 13 10 05 1D 7D 17 FFFFFF82
   14 10 04 14 15 FFFFFF82 10 08 07 FFFFFF82 16 00 FFFFFF84 08 FFFFFF82 17
   01 0B 6E 65 77 46 69 6C 74 65 72 65 64 14 03 6B
   FFFFFF82 18 08 08 FFFFFF82 19 FFFFFF82 15 FFFFFFC0 00 FFFFFF81 52 01 01 70 08
   07 FFFFFF82 1B 00 FFFFFF84 08 FFFFFF82 1C 01 09 6E 65 77 53 6C 69
   63 65 64 14 05 6B FFFFFF82 1D FFFFFF82 1F 08 07 FFFFFF82 1E FFFFFF82 1A
   FFFFFFC0 00 71 01 05 5F 66 72 6F 6D 08 07 FFFFFF82 20 FFFFFF82 1A
   FFFFFFC0 00 71 01 06 5F 75 6E 74 69 6C 08 07 FFFFFF82 22 00
   FFFFFF84 08 FFFFFF82 23 01 0F 6E 65 77 44 72 6F 70 70 65 64
   57 68 69 6C 65 14 03 6B FFFFFF82 24 08 08 FFFFFF82 19 FFFFFF82 21
   FFFFFFC0 00 FFFFFF81 52 08 07 FFFFFF82 26 00 FFFFFF84 08 FFFFFF82 27 01 0D 6E
   65 77 54 61 6B 65 6E 57 68 69 6C 65 14 03 6B FFFFFF82
   28 08 08 FFFFFF82 19 FFFFFF82 25 FFFFFFC0 00 FFFFFF81 52 08 07 FFFFFF82 2A 00
   FFFFFF84 20 FFFFFF82 2B 01 0A 24 70 6C 75 73 24 70 6C 75 73
   15 06 FFFFFF82 2C FFFFFF82 33 FFFFFF82 2F 14 04 FFFFFF82 2D FFFFFF82 34 16 04
   FFFFFF82 2E FFFFFF82 30 10 03 18 FFFFFF82 2F 04 09 53 FFFFFF82 29 FFFFFF84 FFFFFF80
   FFFFFF80 FFFFFFC2 00 1B 08 07 55 FFFFFF82 29 FFFFFFC0 01 FFFFFF82 31 10 07 24
   57 FFFFFF82 32 FFFFFF82 2E 27 10 03 18 FFFFFF82 33 04 09 5B FFFFFF82 29
   FFFFFF84 FFFFFF80 FFFFFF80 FFFFFFC2 00 5C 08 08 FFFFFF82 00 FFFFFF82 29 FFFFFFC0 00 FFFFFF82 35
   10 04 14 15 FFFFFF82 32 08 07 FFFFFF82 2A 00 FFFFFF84 20 FFFFFF82 37 15
   06 FFFFFF82 38 FFFFFF82 3F FFFFFF82 3B 14 04 FFFFFF82 39 FFFFFF82 40 16 04 FFFFFF82
   3A FFFFFF82 3C 10 03 18 FFFFFF82 3B 04 09 53 FFFFFF82 36 FFFFFF84 FFFFFF80 FFFFFF80
   FFFFFFC2 00 1B 08 07 55 FFFFFF82 36 FFFFFFC0 01 FFFFFF82 3D 10 07 24 57
   FFFFFF82 3E FFFFFF82 3A 27 10 03 18 FFFFFF82 3F 04 09 5B FFFFFF82 36 FFFFFF84
   FFFFFF80 FFFFFF80 FFFFFFC2 00 5C 08 08 FFFFFF82 00 FFFFFF82 36 FFFFFFC0 00 FFFFFF82 41 10
   05 14 FFFFFF82 42 FFFFFF82 3E 09 03 FFFFFF82 43 04 02 08 49 74 65
   72 61 74 6F 72 08 07 FFFFFF82 45 00 FFFFFF84 20 FFFFFF82 46 01 03
   6D 61 70 15 06 FFFFFF82 47 FFFFFF82 4E FFFFFF82 4A 14 04 FFFFFF82 48 FFFFFF82
   4F 16 04 FFFFFF82 49 FFFFFF82 4B 10 03 18 FFFFFF82 4A 04 09 53 FFFFFF82
   44 FFFFFF84 FFFFFF80 FFFFFF80 FFFFFFC2 00 1B 08 07 55 FFFFFF82 44 FFFFFFC0 01 FFFFFF82 4C
   10 07 24 57 FFFFFF82 4D FFFFFF82 49 27 10 03 18 FFFFFF82 4E 04 09
   5B FFFFFF82 44 FFFFFF84 FFFFFF80 FFFFFF80 FFFFFFC2 00 1B 08 07 7B FFFFFF82 44 FFFFFFC0 00
   FFFFFF82 50 10 05 1D 7D 17 FFFFFF82 4D 08 07 FFFFFF82 52 00 FFFFFF84 20
   FFFFFF82 53 01 07 66 6C 61 74 4D 61 70 15 06 FFFFFF82 54 FFFFFF82
   5B FFFFFF82 57 14 04 FFFFFF82 55 FFFFFF82 5C 16 04 FFFFFF82 56 FFFFFF82 58 10
   03 18 FFFFFF82 57 04 09 53 FFFFFF82 51 FFFFFF84 FFFFFF80 FFFFFF80 FFFFFFC2 00 1B 08
   07 55 FFFFFF82 51 FFFFFFC0 01 FFFFFF82 59 10 07 24 57 FFFFFF82 5A FFFFFF82 56
   27 10 03 18 FFFFFF82 5B 04 09 5B FFFFFF82 51 FFFFFF84 FFFFFF80 FFFFFF80 FFFFFFC2 00
   1B 08 07 7B FFFFFF82 51 FFFFFFC0 00 FFFFFF82 5D 10 05 1D 7D 17 FFFFFF82
   5E 10 04 14 15 FFFFFF82 5A 08 07 FFFFFF82 60 00 FFFFFF84 20 FFFFFF82 61
   01 06 66 69 6C 74 65 72 14 03 27 FFFFFF82 62 08 08 FFFFFF82
   19 FFFFFF82 5F FFFFFFC0 00 FFFFFF81 52 08 07 FFFFFF82 64 00 FFFFFF84 20 FFFFFF82 65
   01 04 69 6E 69 74 15 01 27 08 07 FFFFFF82 67 00 FFFFFF84 20
   FFFFFF82 68 01 04 64 72 6F 70 14 03 27 FFFFFF82 69 08 07 FFFFFF82
   6A FFFFFF82 66 FFFFFFC0 00 71 01 01 6E 08 07 FFFFFF82 6C 00 FFFFFF84 20
   FFFFFF82 6D 01 04 74 61 6B 65 14 03 27 FFFFFF82 6E 08 07 FFFFFF82
   6A FFFFFF82 6B FFFFFFC0 00 71 08 07 FFFFFF81 09 00 FFFFFF84 20 FFFFFF82 70 14
   05 27 FFFFFF82 71 FFFFFF82 72 08 06 6F FFFFFF82 6F FFFFFFC0 00 71 08 06
   75 FFFFFF82 6F FFFFFFC0 00 71 08 07 FFFFFF82 74 00 FFFFFF84 20 FFFFFF82 75 01
   09 64 72 6F 70 57 68 69 6C 65 14 03 27 FFFFFF82 76 08
   08 FFFFFF82 19 FFFFFF82 73 FFFFFFC0 00 FFFFFF81 52 08 07 FFFFFF82 78 00 FFFFFF84 20
   FFFFFF82 79 01 09 74 61 6B 65 57 68 69 6C 65 14 03 27
   FFFFFF82 7A 08 08 FFFFFF82 19 FFFFFF82 77 FFFFFFC0 00 FFFFFF81 52 08 07 FFFFFF82 7C
   00 FFFFFF84 20 FFFFFF82 7D 01 04 73 70 61 6E 14 04 FFFFFF82 7E FFFFFF83
   01 10 05 1D FFFFFF82 7F 27 27 09 03 FFFFFF83 00 06 02 06 54
   75 70 6C 65 32 08 08 FFFFFF82 19 FFFFFF82 7B FFFFFFC0 00 FFFFFF81 52 08
   07 FFFFFF83 03 00 FFFFFF84 20 FFFFFF83 04 01 07 73 70 6C 69 74 41
   74 14 04 FFFFFF82 7E FFFFFF83 05 08 07 FFFFFF82 6A FFFFFF83 02 FFFFFFC0 00 71
   
  InnerClass: 
   public abstract #66= #63 of #65; //Mapped=class scala/collection/generic/TraversableViewTemplate$Mapped of class scala/collection/generic/TraversableViewTemplate
   public abstract #69= #68 of #65; //Sliced=class scala/collection/generic/TraversableViewTemplate$Sliced of class scala/collection/generic/TraversableViewTemplate
   public abstract #72= #71 of #65; //Appended=class scala/collection/generic/TraversableViewTemplate$Appended of class scala/collection/generic/TraversableViewTemplate
   public abstract #75= #74 of #65; //Filtered=class scala/collection/generic/TraversableViewTemplate$Filtered of class scala/collection/generic/TraversableViewTemplate
   public abstract #78= #77 of #65; //TakenWhile=class scala/collection/generic/TraversableViewTemplate$TakenWhile of class scala/collection/generic/TraversableViewTemplate
   public abstract #81= #80 of #65; //FlatMapped=class scala/collection/generic/TraversableViewTemplate$FlatMapped of class scala/collection/generic/TraversableViewTemplate
   public abstract #84= #83 of #65; //Transformed=class scala/collection/generic/TraversableViewTemplate$Transformed of class scala/collection/generic/TraversableViewTemplate
   public abstract #87= #86 of #65; //DroppedWhile=class scala/collection/generic/TraversableViewTemplate$DroppedWhile of class scala/collection/generic/TraversableViewTemplate
  minor version: 0
  major version: 49
  Constant pool:
const #1 = Asciz	SourceFile;
const #2 = Asciz	TraversableViewTemplate.scala;
const #3 = Asciz	splitAt;
const #4 = Asciz	(I)Lscala/Tuple2;;
const #5 = Asciz	(I)Lscala/Tuple2<TThis;TThis;>;;
const #6 = Asciz	Signature;
const #7 = Asciz	span;
const #8 = Asciz	(Lscala/Function1;)Lscala/Tuple2;;
const #9 = Asciz	(Lscala/Function1<TA;Ljava/lang/Boolean;>;)Lscala/Tuple2<TThis;TThis;>;;
const #10 = Asciz	takeWhile;
const #11 = Asciz	(Lscala/Function1;)Lscala/collection/generic/TraversableView;;
const #12 = Asciz	(Lscala/Function1<TA;Ljava/lang/Boolean;>;)TThis;;
const #13 = Asciz	dropWhile;
const #14 = Asciz	slice;
const #15 = Asciz	(II)Lscala/collection/generic/TraversableView;;
const #16 = Asciz	(II)TThis;;
const #17 = Asciz	take;
const #18 = Asciz	(I)Lscala/collection/generic/TraversableView;;
const #19 = Asciz	(I)TThis;;
const #20 = Asciz	drop;
const #21 = Asciz	init;
const #22 = Asciz	()Lscala/collection/generic/TraversableView;;
const #23 = Asciz	()TThis;;
const #24 = Asciz	filter;
const #25 = Asciz	flatMap;
const #26 = Asciz	(Lscala/Function1;Lscala/collection/generic/BuilderFactory;)Ljava/lang/Object;;
const #27 = Asciz	<B:Ljava/lang/Object;That:Ljava/lang/Object;>(Lscala/Function1<TA;Lscala/collection/Traversable<TB;>;>;Lscala/collection/generic/BuilderFactory<TB;TThat;TThis;>;)TThat;;
const #28 = Asciz	map;
const #29 = Asciz	<B:Ljava/lang/Object;That:Ljava/lang/Object;>(Lscala/Function1<TA;TB;>;Lscala/collection/generic/BuilderFactory<TB;TThat;TThis;>;)TThat;;
const #30 = Asciz	$plus$plus;
const #31 = Asciz	(Lscala/collection/Iterator;Lscala/collection/generic/BuilderFactory;)Ljava/lang/Object;;
const #32 = Asciz	<B:Ljava/lang/Object;That:Ljava/lang/Object;>(Lscala/collection/Iterator<TB;>;Lscala/collection/generic/BuilderFactory<TB;TThat;TThis;>;)TThat;;
const #33 = Asciz	(Lscala/collection/Traversable;Lscala/collection/generic/BuilderFactory;)Ljava/lang/Object;;
const #34 = Asciz	<B:Ljava/lang/Object;That:Ljava/lang/Object;>(Lscala/collection/Traversable<TB;>;Lscala/collection/generic/BuilderFactory<TB;TThat;TThis;>;)TThat;;
const #35 = Asciz	newTakenWhile;
const #36 = Asciz	(Lscala/Function1;)Lscala/collection/generic/TraversableViewTemplate$Transformed;;
const #37 = Asciz	(Lscala/Function1<TA;Ljava/lang/Boolean;>;)Lscala/collection/generic/TraversableViewTemplate<TA;TColl;TThis;>.Transformed<TA;>;;
const #38 = Asciz	newDroppedWhile;
const #39 = Asciz	newSliced;
const #40 = Asciz	(II)Lscala/collection/generic/TraversableViewTemplate$Transformed;;
const #41 = Asciz	(II)Lscala/collection/generic/TraversableViewTemplate<TA;TColl;TThis;>.Transformed<TA;>;;
const #42 = Asciz	newFiltered;
const #43 = Asciz	newFlatMapped;
const #44 = Asciz	<B:Ljava/lang/Object;>(Lscala/Function1<TA;Lscala/collection/Traversable<TB;>;>;)Lscala/collection/generic/TraversableViewTemplate<TA;TColl;TThis;>.Transformed<TB;>;;
const #45 = Asciz	newMapped;
const #46 = Asciz	<B:Ljava/lang/Object;>(Lscala/Function1<TA;TB;>;)Lscala/collection/generic/TraversableViewTemplate<TA;TColl;TThis;>.Transformed<TB;>;;
const #47 = Asciz	newAppended;
const #48 = Asciz	(Lscala/collection/Traversable;)Lscala/collection/generic/TraversableViewTemplate$Transformed;;
const #49 = Asciz	<B:Ljava/lang/Object;>(Lscala/collection/Traversable<TB;>;)Lscala/collection/generic/TraversableViewTemplate<TA;TColl;TThis;>.Transformed<TB;>;;
const #50 = Asciz	force;
const #51 = Asciz	(Lscala/collection/generic/BuilderFactory;)Ljava/lang/Object;;
const #52 = Asciz	<B:Ljava/lang/Object;That:Ljava/lang/Object;>(Lscala/collection/generic/BuilderFactory<TB;TThat;TColl;>;)TThat;;
const #53 = Asciz	underlying;
const #54 = Asciz	()Lscala/collection/Traversable;;
const #55 = Asciz	()TColl;;
const #56 = Asciz	newBuilder;
const #57 = Asciz	()Lscala/collection/generic/Builder;;
const #58 = Asciz	()Lscala/collection/generic/Builder<TA;TThis;>;;
const #59 = Asciz	<A:Ljava/lang/Object;Coll::Lscala/collection/Traversable<*>;This::Lscala/collection/generic/TraversableView<TA;TColl;>;:Lscala/collection/generic/TraversableViewTemplate<TA;TColl;TThis;>;>Ljava/lang/Object;Lscala/collection/Traversable<TA;>;Lscala/collection/generic/TraversableTemplate<TA;TThis;>;Lscala/ScalaObject;;
const #60 = Asciz	ScalaSig;
const #61 = Asciz	InnerClasses;
const #62 = Asciz	scala/collection/generic/TraversableViewTemplate$Mapped;
const #63 = class	#62;	//  scala/collection/generic/TraversableViewTemplate$Mapped
const #64 = Asciz	scala/collection/generic/TraversableViewTemplate;
const #65 = class	#64;	//  scala/collection/generic/TraversableViewTemplate
const #66 = Asciz	Mapped;
const #67 = Asciz	scala/collection/generic/TraversableViewTemplate$Sliced;
const #68 = class	#67;	//  scala/collection/generic/TraversableViewTemplate$Sliced
const #69 = Asciz	Sliced;
const #70 = Asciz	scala/collection/generic/TraversableViewTemplate$Appended;
const #71 = class	#70;	//  scala/collection/generic/TraversableViewTemplate$Appended
const #72 = Asciz	Appended;
const #73 = Asciz	scala/collection/generic/TraversableViewTemplate$Filtered;
const #74 = class	#73;	//  scala/collection/generic/TraversableViewTemplate$Filtered
const #75 = Asciz	Filtered;
const #76 = Asciz	scala/collection/generic/TraversableViewTemplate$TakenWhile;
const #77 = class	#76;	//  scala/collection/generic/TraversableViewTemplate$TakenWhile
const #78 = Asciz	TakenWhile;
const #79 = Asciz	scala/collection/generic/TraversableViewTemplate$FlatMapped;
const #80 = class	#79;	//  scala/collection/generic/TraversableViewTemplate$FlatMapped
const #81 = Asciz	FlatMapped;
const #82 = Asciz	scala/collection/generic/TraversableViewTemplate$Transformed;
const #83 = class	#82;	//  scala/collection/generic/TraversableViewTemplate$Transformed
const #84 = Asciz	Transformed;
const #85 = Asciz	scala/collection/generic/TraversableViewTemplate$DroppedWhile;
const #86 = class	#85;	//  scala/collection/generic/TraversableViewTemplate$DroppedWhile
const #87 = Asciz	DroppedWhile;
const #88 = Asciz	java/lang/Object;
const #89 = class	#88;	//  java/lang/Object
const #90 = Asciz	scala/collection/Traversable;
const #91 = class	#90;	//  scala/collection/Traversable
const #92 = Asciz	scala/collection/generic/TraversableTemplate;
const #93 = class	#92;	//  scala/collection/generic/TraversableTemplate
const #94 = Asciz	scala/ScalaObject;
const #95 = class	#94;	//  scala/ScalaObject

{
public abstract scala.Tuple2 splitAt(int);
  Signature: length = 0x2
   00 05 

public abstract scala.Tuple2 span(scala.Function1);
  Signature: length = 0x2
   00 09 

public abstract scala.collection.generic.TraversableView takeWhile(scala.Function1);
  Signature: length = 0x2
   00 0C 

public abstract scala.collection.generic.TraversableView dropWhile(scala.Function1);
  Signature: length = 0x2
   00 0C 

public abstract scala.collection.generic.TraversableView slice(int, int);
  Signature: length = 0x2
   00 10 

public abstract scala.collection.generic.TraversableView take(int);
  Signature: length = 0x2
   00 13 

public abstract scala.collection.generic.TraversableView drop(int);
  Signature: length = 0x2
   00 13 

public abstract scala.collection.generic.TraversableView init();
  Signature: length = 0x2
   00 17 

public abstract scala.collection.generic.TraversableView filter(scala.Function1);
  Signature: length = 0x2
   00 0C 

public abstract java.lang.Object flatMap(scala.Function1, scala.collection.generic.BuilderFactory);
  Signature: length = 0x2
   00 1B 

public abstract java.lang.Object map(scala.Function1, scala.collection.generic.BuilderFactory);
  Signature: length = 0x2
   00 1D 

public abstract java.lang.Object $plus$plus(scala.collection.Iterator, scala.collection.generic.BuilderFactory);
  Signature: length = 0x2
   00 20 

public abstract java.lang.Object $plus$plus(scala.collection.Traversable, scala.collection.generic.BuilderFactory);
  Signature: length = 0x2
   00 22 

public abstract scala.collection.generic.TraversableViewTemplate$Transformed newTakenWhile(scala.Function1);
  Signature: length = 0x2
   00 25 

public abstract scala.collection.generic.TraversableViewTemplate$Transformed newDroppedWhile(scala.Function1);
  Signature: length = 0x2
   00 25 

public abstract scala.collection.generic.TraversableViewTemplate$Transformed newSliced(int, int);
  Signature: length = 0x2
   00 29 

public abstract scala.collection.generic.TraversableViewTemplate$Transformed newFiltered(scala.Function1);
  Signature: length = 0x2
   00 25 

public abstract scala.collection.generic.TraversableViewTemplate$Transformed newFlatMapped(scala.Function1);
  Signature: length = 0x2
   00 2C 

public abstract scala.collection.generic.TraversableViewTemplate$Transformed newMapped(scala.Function1);
  Signature: length = 0x2
   00 2E 

public abstract scala.collection.generic.TraversableViewTemplate$Transformed newAppended(scala.collection.Traversable);
  Signature: length = 0x2
   00 31 

public abstract java.lang.Object force(scala.collection.generic.BuilderFactory);
  Signature: length = 0x2
   00 34 

public abstract scala.collection.Traversable underlying();
  Signature: length = 0x2
   00 37 

public abstract scala.collection.generic.Builder newBuilder();
  Signature: length = 0x2
   00 3A 

}

