Compiled from "Ordered.scala"
public interface scala.math.Ordered extends java.lang.Comparable,scala.ScalaObject
  SourceFile: "Ordered.scala"
  Signature: length = 0x2
   00 0E 
  ScalaSig: length = 0x246
   05 00 61 06 07 01 02 FFFFFF90 FFFFFF80 FFFFFF81 00 07 02 07 4F 72
   64 65 72 65 64 0A 02 03 04 01 04 6D 61 74 68 0A
   01 05 01 05 73 63 61 6C 61 03 00 15 02 08 16 13
   04 00 09 11 20 10 02 0A 0F 0D 01 0B 0A 02 0C 0D
   01 04 6C 61 6E 67 0A 01 0E 01 04 6A 61 76 61 09
   02 10 0B 02 06 4F 62 6A 65 63 74 10 03 0A 12 14
   09 02 13 0B 02 0A 43 6F 6D 70 61 72 61 62 6C 65
   10 02 15 16 0C 00 04 08 17 00 FFFFFF84 FFFFFF80 FFFFFF80 FFFFFFC2 00 18
   02 01 41 11 02 19 1D 10 02 1A 1B 0D 01 04 09 02
   1C 04 02 07 4E 6F 74 68 69 6E 67 10 02 1A 1E 09
   02 1F 04 02 03 41 6E 79 10 02 1A 21 09 02 22 04
   02 0B 53 63 61 6C 61 4F 62 6A 65 63 74 08 05 24
   00 FFFFFF84 00 25 01 06 24 69 6E 69 74 24 14 01 26 10
   02 1A 27 09 02 28 04 02 04 55 6E 69 74 08 05 2A
   00 FFFFFF86 00 2B 01 07 63 6F 6D 70 61 72 65 14 02 2C
   2F 10 02 1A 2D 09 02 2E 04 02 03 49 6E 74 08 05
   30 29 FFFFFFC0 00 14 01 04 74 68 61 74 08 05 32 00 FFFFFF84
   00 33 01 05 24 6C 65 73 73 14 02 34 37 10 02 1A
   35 09 02 36 04 02 07 42 6F 6F 6C 65 61 6E 08 05
   30 31 FFFFFFC0 00 14 08 05 39 00 FFFFFF84 00 3A 01 08 24 67
   72 65 61 74 65 72 14 02 34 3B 08 05 30 38 FFFFFFC0 00
   14 08 05 3D 00 FFFFFF84 00 3E 01 08 24 6C 65 73 73 24
   65 71 14 02 34 3F 08 05 30 3C FFFFFFC0 00 14 08 05 41
   00 FFFFFF84 00 42 01 0B 24 67 72 65 61 74 65 72 24 65
   71 14 02 34 43 08 05 30 40 FFFFFFC0 00 14 08 05 45 00
   FFFFFF84 00 46 01 09 63 6F 6D 70 61 72 65 54 6F 14 02
   2C 47 08 05 30 44 FFFFFFC0 00 14 07 05 49 02 FFFFFF88 02 4A
   01 07 4F 72 64 65 72 65 64 10 02 4B 4C 0D 01 02
   06 08 01 02 FFFFFF84 FFFFFF80 FFFFFF80 FFFFFF88 02 4D 13 03 4C 09 20 08
   05 4F 4C FFFFFF84 00 50 01 06 3C 69 6E 69 74 3E 14 01
   4A 08 05 52 4C FFFFFF84 01 53 01 11 6F 72 64 65 72 69
   6E 67 54 6F 4F 72 64 65 72 65 64 15 02 54 58 14
   02 55 5F 16 02 56 5A 10 03 4B 00 57 10 02 15 58
   04 08 59 51 FFFFFF84 FFFFFF80 FFFFFF80 FFFFFFC2 00 18 02 01 54 08 05 5B
   51 FFFFFFC0 01 5C 01 03 6F 72 64 10 03 4B 5D 57 09 02
   5E 02 02 08 4F 72 64 65 72 69 6E 67 08 05 60 51
   FFFFFFC0 00 57 01 01 78 
  InnerClass: 
   public final #21= #18 of #20; //$anon$1=class scala/math/Ordered$$anon$1 of class scala/math/Ordered
  minor version: 0
  major version: 49
  Constant pool:
const #1 = Asciz	SourceFile;
const #2 = Asciz	Ordered.scala;
const #3 = Asciz	compareTo;
const #4 = Asciz	(Ljava/lang/Object;)I;
const #5 = Asciz	(TA;)I;
const #6 = Asciz	Signature;
const #7 = Asciz	$greater$eq;
const #8 = Asciz	(Ljava/lang/Object;)Z;
const #9 = Asciz	(TA;)Z;
const #10 = Asciz	$less$eq;
const #11 = Asciz	$greater;
const #12 = Asciz	$less;
const #13 = Asciz	compare;
const #14 = Asciz	<A:Ljava/lang/Object;>Ljava/lang/Object;Ljava/lang/Comparable<TA;>;Lscala/ScalaObject;;
const #15 = Asciz	ScalaSig;
const #16 = Asciz	InnerClasses;
const #17 = Asciz	scala/math/Ordered$$anon$1;
const #18 = class	#17;	//  scala/math/Ordered$$anon$1
const #19 = Asciz	scala/math/Ordered;
const #20 = class	#19;	//  scala/math/Ordered
const #21 = Asciz	$anon$1;
const #22 = Asciz	java/lang/Object;
const #23 = class	#22;	//  java/lang/Object
const #24 = Asciz	java/lang/Comparable;
const #25 = class	#24;	//  java/lang/Comparable
const #26 = Asciz	scala/ScalaObject;
const #27 = class	#26;	//  scala/ScalaObject

{
public abstract int compareTo(java.lang.Object);
  Signature: length = 0x2
   00 05 

public abstract boolean $greater$eq(java.lang.Object);
  Signature: length = 0x2
   00 09 

public abstract boolean $less$eq(java.lang.Object);
  Signature: length = 0x2
   00 09 

public abstract boolean $greater(java.lang.Object);
  Signature: length = 0x2
   00 09 

public abstract boolean $less(java.lang.Object);
  Signature: length = 0x2
   00 09 

public abstract int compare(java.lang.Object);
  Signature: length = 0x2
   00 05 

}

