Compiled from "PartialOrdering.scala"
public interface scala.math.PartialOrdering extends scala.math.Equiv,scala.ScalaObject
  SourceFile: "PartialOrdering.scala"
  Signature: length = 0x2
   00 11 
  ScalaSig: length = 0x1F3
   05 00 57 06 07 01 02 FFFFFF90 FFFFFF80 FFFFFF81 00 07 02 0F 50 61
   72 74 69 61 6C 4F 72 64 65 72 69 6E 67 0A 02 03
   04 01 04 6D 61 74 68 0A 01 05 01 05 73 63 61 6C
   61 03 00 15 02 08 17 13 04 00 09 11 21 10 02 0A
   0F 0D 01 0B 0A 02 0C 0D 01 04 6C 61 6E 67 0A 01
   0E 01 04 6A 61 76 61 09 02 10 0B 02 06 4F 62 6A
   65 63 74 10 03 12 13 15 0D 01 02 09 02 14 02 02
   05 45 71 75 69 76 10 02 16 17 0C 00 04 08 18 00
   FFFFFF84 FFFFFF80 FFFFFF80 FFFFFFC2 00 19 02 01 54 11 02 1A 1E 10 02 1B
   1C 0D 01 04 09 02 1D 04 02 07 4E 6F 74 68 69 6E
   67 10 02 1B 1F 09 02 20 04 02 03 41 6E 79 10 02
   1B 22 09 02 23 04 02 0B 53 63 61 6C 61 4F 62 6A
   65 63 74 08 05 25 00 FFFFFF84 00 26 01 06 24 69 6E 69
   74 24 14 01 27 10 02 1B 28 09 02 29 04 02 04 55
   6E 69 74 08 05 2B 00 FFFFFF86 00 2C 01 0A 74 72 79 43
   6F 6D 70 61 72 65 14 03 2D 33 35 10 03 1B 2E 30
   09 02 2F 04 02 06 4F 70 74 69 6F 6E 10 02 1B 31
   09 02 32 04 02 03 49 6E 74 08 05 34 2A FFFFFFC0 00 15
   01 01 78 08 05 36 2A FFFFFFC0 00 15 01 01 79 08 05 38
   00 FFFFFF86 00 39 01 04 6C 74 65 71 14 03 3A 3D 3E 10
   02 1B 3B 09 02 3C 04 02 07 42 6F 6F 6C 65 61 6E
   08 05 34 37 FFFFFFC0 00 15 08 05 36 37 FFFFFFC0 00 15 08 05
   40 00 FFFFFF84 00 41 01 04 67 74 65 71 14 03 3A 42 43
   08 05 34 3F FFFFFFC0 00 15 08 05 36 3F FFFFFFC0 00 15 08 05
   45 00 FFFFFF84 00 46 01 02 6C 74 14 03 3A 47 48 08 05
   34 44 FFFFFFC0 00 15 08 05 36 44 FFFFFFC0 00 15 08 05 4A 00
   FFFFFF84 00 4B 01 02 67 74 14 03 3A 4C 4D 08 05 34 49
   FFFFFFC0 00 15 08 05 36 49 FFFFFFC0 00 15 08 05 4F 00 FFFFFF84 00
   50 01 05 65 71 75 69 76 14 03 3A 51 52 08 05 34
   4E FFFFFFC0 00 15 08 05 36 4E FFFFFFC0 00 15 08 05 54 00 FFFFFF84
   00 55 01 07 72 65 76 65 72 73 65 15 01 56 10 03
   12 00 15 
  InnerClass: 
   public final $anon$1=class scala/math/PartialOrdering$$anon$1 of class scala/math/PartialOrdering
  minor version: 0
  major version: 49
  Constant pool:
Asciz	SourceFile;
Asciz	PartialOrdering.scala;
Asciz	tryCompare;
Asciz	(Ljava/lang/Object;Ljava/lang/Object;)Lscala/Option;;
Asciz	(TT;TT;)Lscala/Option<Ljava/lang/Integer;>;;
Asciz	Signature;
Asciz	lteq;
Asciz	(Ljava/lang/Object;Ljava/lang/Object;)Z;
Asciz	(TT;TT;)Z;
Asciz	gteq;
Asciz	lt;
Asciz	gt;
Asciz	equiv;
Asciz	reverse;
Asciz	()Lscala/math/PartialOrdering;;
Asciz	()Lscala/math/PartialOrdering<TT;>;;
Asciz	<T:Ljava/lang/Object;>Ljava/lang/Object;Lscala/math/Equiv<TT;>;Lscala/ScalaObject;;
Asciz	ScalaSig;
Asciz	InnerClasses;
Asciz	scala/math/PartialOrdering$$anon$1;
class	scala/math/PartialOrdering$$anon$1
Asciz	scala/math/PartialOrdering;
class	scala/math/PartialOrdering
Asciz	$anon$1;
Asciz	java/lang/Object;
class	java/lang/Object
Asciz	scala/math/Equiv;
class	scala/math/Equiv
Asciz	scala/ScalaObject;
class	scala/ScalaObject

{
public abstract scala.Option tryCompare(java.lang.Object, java.lang.Object);
  Signature: (Ljava/lang/Object;Ljava/lang/Object;)Lscala/Option;
  Signature: length = 0x2
   00 05 

public abstract boolean lteq(java.lang.Object, java.lang.Object);
  Signature: (Ljava/lang/Object;Ljava/lang/Object;)Z
  Signature: length = 0x2
   00 09 

public abstract boolean gteq(java.lang.Object, java.lang.Object);
  Signature: (Ljava/lang/Object;Ljava/lang/Object;)Z
  Signature: length = 0x2
   00 09 

public abstract boolean lt(java.lang.Object, java.lang.Object);
  Signature: (Ljava/lang/Object;Ljava/lang/Object;)Z
  Signature: length = 0x2
   00 09 

public abstract boolean gt(java.lang.Object, java.lang.Object);
  Signature: (Ljava/lang/Object;Ljava/lang/Object;)Z
  Signature: length = 0x2
   00 09 

public abstract boolean equiv(java.lang.Object, java.lang.Object);
  Signature: (Ljava/lang/Object;Ljava/lang/Object;)Z
  Signature: length = 0x2
   00 09 

public abstract scala.math.PartialOrdering reverse();
  Signature: ()Lscala/math/PartialOrdering;
  Signature: length = 0x2
   00 10 

}

