Compiled from "BitSet.scala"
public interface scala.collection.BitSet extends scala.collection.Set,scala.collection.BitSetLike,scala.ScalaObject
  SourceFile: "BitSet.scala"
  Signature: length = 0x2
   00 05 
  ScalaSig: length = 0x154
   05 00 39 06 08 01 02 FFFFFF84 FFFFFF90 FFFFFF80 FFFFFF81 00 07 02 06 42
   69 74 53 65 74 0A 02 03 04 01 0A 63 6F 6C 6C 65
   63 74 69 6F 6E 0A 01 05 01 05 73 63 61 6C 61 03
   00 13 05 00 08 10 18 1C 10 02 09 0E 0D 01 0A 0A
   02 0B 0C 01 04 6C 61 6E 67 0A 01 0D 01 04 6A 61
   76 61 09 02 0F 0A 02 06 4F 62 6A 65 63 74 10 03
   11 12 14 0D 01 02 09 02 13 02 02 03 53 65 74 10
   02 15 16 0D 01 04 09 02 17 04 02 03 49 6E 74 10
   03 11 19 1B 09 02 1A 02 02 0A 42 69 74 53 65 74
   4C 69 6B 65 10 02 11 00 10 02 15 1D 09 02 1E 04
   02 0B 53 63 61 6C 61 4F 62 6A 65 63 74 08 05 20
   00 FFFFFF84 00 21 01 06 24 69 6E 69 74 24 14 01 22 10
   02 15 23 09 02 24 04 02 04 55 6E 69 74 08 05 26
   00 FFFFFF84 20 27 01 05 65 6D 70 74 79 15 01 1B 07 05
   29 02 FFFFFF88 02 2A 01 06 42 69 74 53 65 74 10 02 11
   2B 06 08 01 02 FFFFFF84 FFFFFF80 FFFFFF80 FFFFFF88 02 2C 13 04 2B 08 2D
   1C 10 03 2E 31 1B 0D 01 2F 0A 02 30 02 01 07 67
   65 6E 65 72 69 63 09 02 32 2F 02 0D 42 69 74 53
   65 74 46 61 63 74 6F 72 79 08 05 34 2B FFFFFF84 00 35
   01 06 3C 69 6E 69 74 3E 14 01 2A 08 07 26 2B FFFFFFC2
   FFFFFF80 FFFFFF84 00 27 08 06 38 2B FFFFFFA0 FFFFFF80 04 1B 01 06 65 6D
   70 74 79 20 
  minor version: 0
  major version: 49
  Constant pool:
const #1 = Asciz	SourceFile;
const #2 = Asciz	BitSet.scala;
const #3 = Asciz	empty;
const #4 = Asciz	()Lscala/collection/BitSet;;
const #5 = Asciz	Ljava/lang/Object;Lscala/collection/Set<Ljava/lang/Integer;>;Lscala/collection/BitSetLike<Lscala/collection/BitSet;>;Lscala/ScalaObject;;
const #6 = Asciz	Signature;
const #7 = Asciz	ScalaSig;
const #8 = Asciz	scala/collection/BitSet;
const #9 = class	#8;	//  scala/collection/BitSet
const #10 = Asciz	java/lang/Object;
const #11 = class	#10;	//  java/lang/Object
const #12 = Asciz	scala/collection/Set;
const #13 = class	#12;	//  scala/collection/Set
const #14 = Asciz	scala/collection/BitSetLike;
const #15 = class	#14;	//  scala/collection/BitSetLike
const #16 = Asciz	scala/ScalaObject;
const #17 = class	#16;	//  scala/ScalaObject

{
public abstract scala.collection.BitSet empty();

}

