Compiled from "IterableViewLike.scala"
public interface scala.collection.IterableViewLike extends scala.collection.Iterable,scala.collection.IterableLike,scala.collection.TraversableView,scala.collection.TraversableViewLike,scala.ScalaObject
  SourceFile: "IterableViewLike.scala"
  Signature: length = 0x2
   00 2D 
  ScalaSig: length = 0xB32
   05 00 FFFFFF82 7C 06 07 01 02 FFFFFF90 FFFFFF80 FFFFFF81 00 07 02 10 49
   74 65 72 61 62 6C 65 56 69 65 77 4C 69 6B 65 0A
   02 03 04 01 0A 63 6F 6C 6C 65 63 74 69 6F 6E 0A
   01 05 01 05 73 63 61 6C 61 03 00 15 04 08 17 2F
   25 13 07 00 09 11 21 32 35 38 10 02 0A 0F 0D 01
   0B 0A 02 0C 0D 01 04 6C 61 6E 67 0A 01 0E 01 04
   6A 61 76 61 09 02 10 0B 02 06 4F 62 6A 65 63 74
   10 03 12 13 15 0D 01 02 09 02 14 02 02 08 49 74
   65 72 61 62 6C 65 10 02 16 17 0C 00 04 08 18 00
   FFFFFF84 FFFFFF80 FFFFFF84 FFFFFFC2 00 19 02 01 41 11 02 1A 1E 10 02 1B
   1C 0D 01 04 09 02 1D 04 02 07 4E 6F 74 68 69 6E
   67 10 02 1B 1F 09 02 20 04 02 03 41 6E 79 10 04
   12 22 15 24 09 02 23 02 02 0C 49 74 65 72 61 62
   6C 65 4C 69 6B 65 10 02 16 25 04 08 26 00 FFFFFF84 FFFFFF80
   FFFFFF84 FFFFFFC2 00 27 02 04 54 68 69 73 11 02 1A 28 12 03
   29 2B 31 06 08 2A 00 FFFFFF84 FFFFFF80 FFFFFF80 FFFFFF80 00 28 02 0C 3C
   72 65 66 69 6E 65 6D 65 6E 74 3E 10 04 12 2C 15
   2E 09 02 2D 02 02 0C 49 74 65 72 61 62 6C 65 56
   69 65 77 10 02 16 2F 04 08 30 00 FFFFFF84 FFFFFF80 FFFFFF84 FFFFFFC2 00
   19 02 04 43 6F 6C 6C 10 05 12 00 15 2E 24 10 04
   12 33 15 2E 09 02 34 02 02 0F 54 72 61 76 65 72
   73 61 62 6C 65 56 69 65 77 10 05 12 36 15 2E 24
   09 02 37 02 02 13 54 72 61 76 65 72 73 61 62 6C
   65 56 69 65 77 4C 69 6B 65 10 02 1B 39 09 02 3A
   04 02 0B 53 63 61 6C 61 4F 62 6A 65 63 74 08 05
   3C 00 FFFFFF84 00 3D 01 06 24 69 6E 69 74 24 14 01 3E
   10 02 1B 3F 09 02 40 04 02 04 55 6E 69 74 06 07
   42 00 FFFFFF90 FFFFFF80 FFFFFF91 00 43 02 0B 54 72 61 6E 73 66 6F
   72 6D 65 64 15 02 44 47 13 04 41 09 45 49 10 04
   12 2C 46 2E 10 02 16 47 04 08 48 41 FFFFFF84 FFFFFF80 FFFFFF84 FFFFFFC2
   00 19 02 01 42 10 03 4A 4B 46 0D 01 00 09 02 42
   36 06 07 4D 00 FFFFFF90 FFFFFF80 FFFFFF81 00 4E 02 06 46 6F 72 63
   65 64 15 02 4F 52 13 05 4C 09 50 53 38 10 03 4A
   41 51 10 02 16 52 04 08 48 4C FFFFFF84 FFFFFF80 FFFFFF80 FFFFFFC2 00 19
   10 03 4A 54 51 09 02 4D 36 08 05 3C 4C FFFFFF84 00 3D
   08 05 57 4C FFFFFF84 20 58 01 08 69 74 65 72 61 74 6F
   72 15 01 59 10 03 12 5A 51 09 02 5B 02 02 08 49
   74 65 72 61 74 6F 72 06 08 5D 00 FFFFFF84 FFFFFF90 FFFFFF80 FFFFFF81 00
   5E 02 06 53 6C 69 63 65 64 13 05 5C 09 5F 60 38
   10 03 4A 41 15 10 02 4A 61 09 02 5D 36 08 05 3C
   5C FFFFFF84 00 3D 08 05 57 5C FFFFFF84 20 64 15 01 65 10 03
   12 5A 15 06 07 67 00 FFFFFF90 FFFFFF80 FFFFFF81 00 68 02 06 4D 61
   70 70 65 64 15 02 69 6C 13 05 66 09 6A 6D 38 10
   03 4A 41 6B 10 02 16 6C 04 08 48 66 FFFFFF84 FFFFFF80 FFFFFF80 FFFFFFC2
   00 19 10 03 4A 6E 6B 09 02 67 36 08 05 3C 66 FFFFFF84
   00 3D 08 05 57 66 FFFFFF84 20 71 15 01 72 10 03 12 5A
   6B 06 07 74 00 FFFFFF90 FFFFFF80 FFFFFF81 00 75 02 0A 46 6C 61 74
   4D 61 70 70 65 64 15 02 76 79 13 05 73 09 77 7A
   38 10 03 4A 41 78 10 02 16 79 04 08 48 73 FFFFFF84 FFFFFF80
   FFFFFF80 FFFFFFC2 00 19 10 03 4A 7B 78 09 02 74 36 08 05 3C
   73 FFFFFF84 00 3D 08 05 57 73 FFFFFF84 20 7E 15 01 7F 10 03
   12 5A 78 06 09 FFFFFF81 01 00 FFFFFF90 FFFFFF80 FFFFFF81 00 FFFFFF81 02 02 08
   41 70 70 65 6E 64 65 64 15 04 FFFFFF81 03 FFFFFF81 06 13 08
   FFFFFF81 00 09 FFFFFF81 04 FFFFFF81 08 38 10 04 4A 41 FFFFFF81 05 10 03
   16 FFFFFF81 06 04 0A 48 FFFFFF81 00 FFFFFF84 FFFFFF80 FFFFFF80 FFFFFFC2 00 FFFFFF81 07 11
   02 15 1E 10 05 4A FFFFFF81 09 FFFFFF81 05 09 03 FFFFFF81 01 36 08
   06 3C FFFFFF81 00 FFFFFF84 00 3D 08 07 57 FFFFFF81 00 FFFFFF84 20 FFFFFF81 0C
   15 02 FFFFFF81 0D 10 04 12 5A FFFFFF81 05 06 0A FFFFFF81 0F 00 FFFFFF84
   FFFFFF90 FFFFFF80 FFFFFF81 00 FFFFFF81 10 02 08 46 69 6C 74 65 72 65 64
   13 07 FFFFFF81 0E 09 5F FFFFFF81 11 38 10 03 4A FFFFFF81 12 09 03
   FFFFFF81 0F 36 08 06 3C FFFFFF81 0E FFFFFF84 00 3D 08 06 57 FFFFFF81 0E
   FFFFFF84 20 64 06 0A FFFFFF81 16 00 FFFFFF84 FFFFFF90 FFFFFF80 FFFFFF81 00 FFFFFF81 17 02
   0A 54 61 6B 65 6E 57 68 69 6C 65 13 07 FFFFFF81 15 09
   5F FFFFFF81 18 38 10 03 4A FFFFFF81 19 09 03 FFFFFF81 16 36 08 06
   3C FFFFFF81 15 FFFFFF84 00 3D 08 06 57 FFFFFF81 15 FFFFFF84 20 64 06 0A
   FFFFFF81 1D 00 FFFFFF84 FFFFFF90 FFFFFF80 FFFFFF81 00 FFFFFF81 1E 02 0C 44 72 6F 70
   70 65 64 57 68 69 6C 65 13 07 FFFFFF81 1C 09 5F FFFFFF81 1F
   38 10 03 4A FFFFFF81 20 09 03 FFFFFF81 1D 36 08 06 3C FFFFFF81 1C
   FFFFFF84 00 3D 08 06 57 FFFFFF81 1C FFFFFF84 20 64 06 09 FFFFFF81 24 00
   FFFFFF90 FFFFFF80 FFFFFF81 00 FFFFFF81 25 02 06 5A 69 70 70 65 64 15 04
   FFFFFF81 26 FFFFFF81 2C 13 06 FFFFFF81 23 09 FFFFFF81 27 38 10 04 4A 41
   FFFFFF81 28 10 06 1B FFFFFF81 29 15 FFFFFF81 2B 09 03 FFFFFF81 2A 04 02
   06 54 75 70 6C 65 32 10 03 16 FFFFFF81 2C 04 09 48 FFFFFF81
   23 FFFFFF84 FFFFFF80 FFFFFF80 FFFFFFC2 00 19 08 06 3C FFFFFF81 23 FFFFFF84 00 3D 08
   0A FFFFFF81 2F FFFFFF81 23 FFFFFFC2 FFFFFFA0 FFFFFF86 08 FFFFFF81 30 01 05 6F 74 68
   65 72 15 02 FFFFFF81 31 10 04 12 13 FFFFFF81 2B 08 07 57 FFFFFF81
   23 FFFFFF84 20 FFFFFF81 33 15 02 FFFFFF81 34 10 04 12 5A FFFFFF81 28 08
   08 FFFFFF81 36 FFFFFF81 23 FFFFFF84 20 FFFFFF81 37 01 0C 73 74 72 69 6E
   67 50 72 65 66 69 78 15 02 FFFFFF81 38 10 03 0A FFFFFF81 39
   09 03 FFFFFF81 3A 0B 02 06 53 74 72 69 6E 67 06 09 FFFFFF81
   3C 00 FFFFFF90 FFFFFF80 FFFFFF81 00 FFFFFF81 3D 02 09 5A 69 70 70 65 64
   41 6C 6C 15 06 FFFFFF81 3E FFFFFF81 42 FFFFFF81 45 13 06 FFFFFF81 3B 09
   FFFFFF81 3F 38 10 04 4A 41 FFFFFF81 40 10 07 1B FFFFFF81 29 FFFFFF81 41
   FFFFFF81 44 10 03 16 FFFFFF81 42 04 0B FFFFFF81 43 FFFFFF81 3B FFFFFF84 FFFFFF80 FFFFFF80
   FFFFFFC2 00 FFFFFF81 07 02 02 41 31 10 03 16 FFFFFF81 45 04 09 48
   FFFFFF81 3B FFFFFF84 FFFFFF80 FFFFFF80 FFFFFFC2 00 19 08 06 3C FFFFFF81 3B FFFFFF84 00 3D
   08 0A FFFFFF81 2F FFFFFF81 3B FFFFFFC2 FFFFFFA0 FFFFFF86 08 FFFFFF81 48 15 02 FFFFFF81 49
   10 04 12 13 FFFFFF81 44 08 0A FFFFFF81 4B FFFFFF81 3B FFFFFFC2 FFFFFFA0 FFFFFF86 08
   FFFFFF81 4C 01 08 74 68 69 73 45 6C 65 6D 15 02 FFFFFF81 41
   08 0A FFFFFF81 4E FFFFFF81 3B FFFFFFC2 FFFFFFA0 FFFFFF86 08 FFFFFF81 4F 01 08 74 68
   61 74 45 6C 65 6D 15 02 FFFFFF81 44 08 07 57 FFFFFF81 3B FFFFFF84
   20 FFFFFF81 51 15 02 FFFFFF81 52 10 04 12 5A FFFFFF81 40 08 07 FFFFFF81
   54 00 FFFFFF84 20 FFFFFF81 55 01 03 7A 69 70 15 08 FFFFFF81 56 FFFFFF81
   65 FFFFFF81 67 FFFFFF81 59 14 04 FFFFFF81 57 FFFFFF81 68 16 04 FFFFFF81 58 FFFFFF81
   5B 10 03 16 FFFFFF81 59 04 0A FFFFFF81 5A FFFFFF81 53 FFFFFF84 FFFFFF80 FFFFFF80 FFFFFFC2
   00 19 02 04 54 68 61 74 08 08 FFFFFF81 5C FFFFFF81 53 FFFFFFC0 01
   FFFFFF81 5D 01 02 62 66 10 09 FFFFFF81 5E FFFFFF81 61 24 FFFFFF81 63 FFFFFF81
   58 0D 02 FFFFFF81 5F 0A 03 FFFFFF81 60 02 01 07 67 65 6E 65
   72 69 63 09 04 FFFFFF81 62 FFFFFF81 5F 02 0C 43 61 6E 42 75
   69 6C 64 46 72 6F 6D 10 07 1B FFFFFF81 29 FFFFFF81 64 FFFFFF81 66
   10 03 16 FFFFFF81 65 04 0B FFFFFF81 43 FFFFFF81 53 FFFFFF84 FFFFFF80 FFFFFF80 FFFFFFC2 00
   FFFFFF81 07 10 03 16 FFFFFF81 67 04 09 48 FFFFFF81 53 FFFFFF84 FFFFFF80 FFFFFF80 FFFFFFC2
   00 19 08 08 FFFFFF81 69 FFFFFF81 53 FFFFFFC0 00 FFFFFF81 6A 01 04 74 68
   61 74 10 04 12 13 FFFFFF81 66 08 07 FFFFFF81 6C 00 FFFFFF84 20 FFFFFF81
   6D 01 0C 7A 69 70 57 69 74 68 49 6E 64 65 78 15
   06 FFFFFF81 6E FFFFFF81 75 FFFFFF81 70 16 04 FFFFFF81 6F FFFFFF81 71 10 03 16
   FFFFFF81 70 04 0A FFFFFF81 5A FFFFFF81 6B FFFFFF84 FFFFFF80 FFFFFF80 FFFFFFC2 00 19 08 08
   FFFFFF81 5C FFFFFF81 6B FFFFFFC0 01 FFFFFF81 72 10 09 FFFFFF81 5E FFFFFF81 61 24 FFFFFF81
   73 FFFFFF81 6F 10 07 1B FFFFFF81 29 FFFFFF81 74 FFFFFF81 76 10 03 16 FFFFFF81
   75 04 0B FFFFFF81 43 FFFFFF81 6B FFFFFF84 FFFFFF80 FFFFFF80 FFFFFFC2 00 FFFFFF81 07 10 03
   1B FFFFFF81 77 09 03 FFFFFF81 78 04 02 03 49 6E 74 08 07 FFFFFF81
   7A 00 FFFFFF84 20 FFFFFF81 7B 01 06 7A 69 70 41 6C 6C 15 08
   FFFFFF81 7C FFFFFF82 06 FFFFFF82 04 FFFFFF81 7F 14 08 FFFFFF81 7D FFFFFF82 07 FFFFFF82 09
   FFFFFF82 0A 16 04 FFFFFF81 7E FFFFFF82 00 10 03 16 FFFFFF81 7F 04 0A FFFFFF81
   5A FFFFFF81 79 FFFFFF84 FFFFFF80 FFFFFF80 FFFFFFC2 00 19 08 08 FFFFFF81 5C FFFFFF81 79 FFFFFFC0
   01 FFFFFF82 01 10 09 FFFFFF81 5E FFFFFF81 61 24 FFFFFF82 02 FFFFFF81 7E 10 07
   1B FFFFFF81 29 FFFFFF82 03 FFFFFF82 05 10 03 16 FFFFFF82 04 04 0B FFFFFF81 43
   FFFFFF81 79 FFFFFF84 FFFFFF80 FFFFFF80 FFFFFFC2 00 FFFFFF81 07 10 03 16 FFFFFF82 06 04 09
   48 FFFFFF81 79 FFFFFF84 FFFFFF80 FFFFFF80 FFFFFFC2 00 19 08 08 FFFFFF81 69 FFFFFF81 79 FFFFFFC0
   00 FFFFFF82 08 10 04 12 13 FFFFFF82 05 08 08 FFFFFF81 4B FFFFFF81 79 FFFFFFC0
   00 FFFFFF82 03 08 08 FFFFFF81 4E FFFFFF81 79 FFFFFFC0 00 FFFFFF82 05 08 07 FFFFFF82
   0C 00 FFFFFF84 08 FFFFFF82 0D 01 09 6E 65 77 5A 69 70 70 65
   64 15 04 FFFFFF82 0E FFFFFF82 12 14 04 FFFFFF82 0F FFFFFF82 13 10 04 4A
   41 FFFFFF82 10 10 06 1B FFFFFF81 29 15 FFFFFF82 11 10 03 16 FFFFFF82 12
   04 09 48 FFFFFF82 0B FFFFFF84 FFFFFF80 FFFFFF80 FFFFFFC2 00 19 08 08 FFFFFF81 69 FFFFFF82
   0B FFFFFFC0 00 FFFFFF82 14 10 04 12 13 FFFFFF82 11 08 07 FFFFFF82 16 00
   FFFFFF84 08 FFFFFF82 17 01 0C 6E 65 77 5A 69 70 70 65 64 41
   6C 6C 15 06 FFFFFF82 18 FFFFFF82 1C FFFFFF82 1E 14 08 FFFFFF82 19 FFFFFF82 1F
   FFFFFF82 21 FFFFFF82 23 10 04 4A 41 FFFFFF82 1A 10 07 1B FFFFFF81 29 FFFFFF82
   1B FFFFFF82 1D 10 03 16 FFFFFF82 1C 04 0B FFFFFF81 43 FFFFFF82 15 FFFFFF84 FFFFFF80
   FFFFFF80 FFFFFFC2 00 FFFFFF81 07 10 03 16 FFFFFF82 1E 04 09 48 FFFFFF82 15 FFFFFF84
   FFFFFF80 FFFFFF80 FFFFFFC2 00 19 08 08 FFFFFF81 69 FFFFFF82 15 FFFFFFC0 00 FFFFFF82 20 10
   04 12 13 FFFFFF82 1D 08 08 FFFFFF82 22 FFFFFF82 15 FFFFFFC0 00 FFFFFF82 1B 01
   09 5F 74 68 69 73 45 6C 65 6D 08 08 FFFFFF82 24 FFFFFF82 15
   FFFFFFC0 00 FFFFFF82 1D 01 09 5F 74 68 61 74 45 6C 65 6D 08
   07 FFFFFF82 26 00 FFFFFF84 28 FFFFFF82 27 01 09 6E 65 77 46 6F 72
   63 65 64 15 04 FFFFFF82 28 FFFFFF82 2B 14 04 FFFFFF82 29 FFFFFF82 2C 10
   04 4A 41 FFFFFF82 2A 10 03 16 FFFFFF82 2B 04 09 48 FFFFFF82 25 FFFFFF84
   FFFFFF80 FFFFFF80 FFFFFFC2 00 19 08 09 FFFFFF82 2D FFFFFF82 25 FFFFFF84 FFFFFFC0 00 FFFFFF82 2E
   01 02 78 73 10 05 1B FFFFFF82 2F FFFFFF82 31 09 03 FFFFFF82 30 04
   02 08 3C 62 79 6E 61 6D 65 3E 10 05 12 FFFFFF82 32 FFFFFF82
   2A 09 03 FFFFFF82 33 02 02 03 53 65 71 08 07 FFFFFF82 35 00
   FFFFFF84 28 FFFFFF82 36 01 0B 6E 65 77 41 70 70 65 6E 64 65
   64 15 04 FFFFFF82 37 FFFFFF82 3A 14 04 FFFFFF82 38 FFFFFF82 3B 10 04 4A
   41 FFFFFF82 39 10 03 16 FFFFFF82 3A 04 0A 48 FFFFFF82 34 FFFFFF84 FFFFFF80 FFFFFF80
   FFFFFFC2 00 FFFFFF81 07 08 08 FFFFFF81 69 FFFFFF82 34 FFFFFFC0 00 FFFFFF82 3C 10 05
   12 FFFFFF82 3D FFFFFF82 39 09 03 FFFFFF82 3E 02 02 0B 54 72 61 76
   65 72 73 61 62 6C 65 08 07 FFFFFF82 40 00 FFFFFF84 28 FFFFFF82 41
   01 09 6E 65 77 4D 61 70 70 65 64 15 04 FFFFFF82 42 FFFFFF82
   45 14 04 FFFFFF82 43 FFFFFF82 46 10 04 4A 41 FFFFFF82 44 10 03 16
   FFFFFF82 45 04 09 48 FFFFFF82 3F FFFFFF84 FFFFFF80 FFFFFF80 FFFFFFC2 00 19 08 08 FFFFFF82
   47 FFFFFF82 3F FFFFFFC0 00 FFFFFF82 48 01 01 66 10 06 1B FFFFFF82 49 15
   FFFFFF82 44 09 03 FFFFFF82 4A 04 02 09 46 75 6E 63 74 69 6F
   6E 31 08 07 FFFFFF82 4C 00 FFFFFF84 28 FFFFFF82 4D 01 0D 6E 65 77
   46 6C 61 74 4D 61 70 70 65 64 15 04 FFFFFF82 4E FFFFFF82 51
   14 04 FFFFFF82 4F FFFFFF82 52 10 04 4A 41 FFFFFF82 50 10 03 16 FFFFFF82
   51 04 09 48 FFFFFF82 4B FFFFFF84 FFFFFF80 FFFFFF80 FFFFFFC2 00 19 08 08 FFFFFF82 47
   FFFFFF82 4B FFFFFFC0 00 FFFFFF82 53 10 06 1B FFFFFF82 49 15 FFFFFF82 54 10 05
   12 FFFFFF82 3D FFFFFF82 50 08 07 FFFFFF82 56 00 FFFFFF84 28 FFFFFF82 57 01 0B
   6E 65 77 46 69 6C 74 65 72 65 64 14 03 5F FFFFFF82 58
   08 08 FFFFFF82 59 FFFFFF82 55 FFFFFFC0 00 FFFFFF82 5A 01 01 70 10 06 1B
   FFFFFF82 49 15 FFFFFF82 5B 10 03 1B FFFFFF82 5C 09 03 FFFFFF82 5D 04 02
   07 42 6F 6F 6C 65 61 6E 08 07 FFFFFF82 5F 00 FFFFFF84 28 FFFFFF82
   60 01 09 6E 65 77 53 6C 69 63 65 64 14 05 5F FFFFFF82
   61 FFFFFF82 63 08 08 FFFFFF82 62 FFFFFF82 5E FFFFFFC0 00 FFFFFF81 76 01 05 5F
   66 72 6F 6D 08 08 FFFFFF82 64 FFFFFF82 5E FFFFFFC0 00 FFFFFF81 76 01 06
   5F 75 6E 74 69 6C 08 07 FFFFFF82 66 00 FFFFFF84 28 FFFFFF82 67 01
   0F 6E 65 77 44 72 6F 70 70 65 64 57 68 69 6C 65
   14 03 5F FFFFFF82 68 08 08 FFFFFF82 59 FFFFFF82 65 FFFFFFC0 00 FFFFFF82 5A 08
   07 FFFFFF82 6A 00 FFFFFF84 28 FFFFFF82 6B 01 0D 6E 65 77 54 61 6B
   65 6E 57 68 69 6C 65 14 03 5F FFFFFF82 6C 08 08 FFFFFF82 59
   FFFFFF82 69 FFFFFFC0 00 FFFFFF82 5A 08 07 FFFFFF82 6E 00 FFFFFF84 20 FFFFFF82 6F 01
   07 67 72 6F 75 70 65 64 14 04 FFFFFF82 70 FFFFFF82 71 10 03
   12 5A 24 08 08 FFFFFF82 72 FFFFFF82 6D FFFFFFC0 00 FFFFFF81 76 01 04 73
   69 7A 65 08 07 FFFFFF82 74 00 FFFFFF84 20 FFFFFF82 75 01 07 73 6C
   69 64 69 6E 67 15 04 FFFFFF82 76 FFFFFF82 7A 14 06 FFFFFF82 70 FFFFFF82
   77 FFFFFF82 78 08 08 FFFFFF82 72 FFFFFF82 73 FFFFFFC0 00 FFFFFF81 76 08 08 FFFFFF82
   79 FFFFFF82 73 FFFFFFC0 00 FFFFFF81 76 01 04 73 74 65 70 04 0A 48
   FFFFFF82 73 FFFFFF84 FFFFFF80 FFFFFF80 FFFFFFC2 00 FFFFFF81 07 08 07 FFFFFF81 36 00 FFFFFF84 20
   FFFFFF81 37 
  InnerClass: 
   public abstract Zipped=class scala/collection/IterableViewLike$Zipped of class scala/collection/IterableViewLike
   public abstract Mapped=class scala/collection/IterableViewLike$Mapped of class scala/collection/IterableViewLike
   public abstract Sliced=class scala/collection/IterableViewLike$Sliced of class scala/collection/IterableViewLike
   public abstract Forced=class scala/collection/IterableViewLike$Forced of class scala/collection/IterableViewLike
   public final $anon$8=class scala/collection/IterableViewLike$$anon$8 of class scala/collection/IterableViewLike
   public final $anon$7=class scala/collection/IterableViewLike$$anon$7 of class scala/collection/IterableViewLike
   public final $anon$6=class scala/collection/IterableViewLike$$anon$6 of class scala/collection/IterableViewLike
   public final $anon$5=class scala/collection/IterableViewLike$$anon$5 of class scala/collection/IterableViewLike
   public final $anon$4=class scala/collection/IterableViewLike$$anon$4 of class scala/collection/IterableViewLike
   public final $anon$3=class scala/collection/IterableViewLike$$anon$3 of class scala/collection/IterableViewLike
   public final $anon$2=class scala/collection/IterableViewLike$$anon$2 of class scala/collection/IterableViewLike
   public final $anon$1=class scala/collection/IterableViewLike$$anon$1 of class scala/collection/IterableViewLike
   public final $anon$9=class scala/collection/IterableViewLike$$anon$9 of class scala/collection/IterableViewLike
   public final $anon$10=class scala/collection/IterableViewLike$$anon$10 of class scala/collection/IterableViewLike
   public abstract Filtered=class scala/collection/IterableViewLike$Filtered of class scala/collection/IterableViewLike
   public abstract Appended=class scala/collection/IterableViewLike$Appended of class scala/collection/IterableViewLike
   public abstract ZippedAll=class scala/collection/IterableViewLike$ZippedAll of class scala/collection/IterableViewLike
   public abstract TakenWhile=class scala/collection/IterableViewLike$TakenWhile of class scala/collection/IterableViewLike
   public abstract FlatMapped=class scala/collection/IterableViewLike$FlatMapped of class scala/collection/IterableViewLike
   public abstract Transformed=class scala/collection/IterableViewLike$Transformed of class scala/collection/IterableViewLike
   public abstract Zipped$class=class scala/collection/IterableViewLike$Zipped$class of class scala/collection/IterableViewLike
   public abstract Sliced$class=class scala/collection/IterableViewLike$Sliced$class of class scala/collection/IterableViewLike
   public abstract Mapped$class=class scala/collection/IterableViewLike$Mapped$class of class scala/collection/IterableViewLike
   public abstract Forced$class=class scala/collection/IterableViewLike$Forced$class of class scala/collection/IterableViewLike
   public abstract DroppedWhile=class scala/collection/IterableViewLike$DroppedWhile of class scala/collection/IterableViewLike
   public abstract Filtered$class=class scala/collection/IterableViewLike$Filtered$class of class scala/collection/IterableViewLike
   public abstract Appended$class=class scala/collection/IterableViewLike$Appended$class of class scala/collection/IterableViewLike
   public abstract ZippedAll$class=class scala/collection/IterableViewLike$ZippedAll$class of class scala/collection/IterableViewLike
   public abstract TakenWhile$class=class scala/collection/IterableViewLike$TakenWhile$class of class scala/collection/IterableViewLike
   public abstract FlatMapped$class=class scala/collection/IterableViewLike$FlatMapped$class of class scala/collection/IterableViewLike
   public final $anonfun$sliding$1=class scala/collection/IterableViewLike$$anonfun$sliding$1 of class scala/collection/IterableViewLike
   public final $anonfun$grouped$1=class scala/collection/IterableViewLike$$anonfun$grouped$1 of class scala/collection/IterableViewLike
   public abstract DroppedWhile$class=class scala/collection/IterableViewLike$DroppedWhile$class of class scala/collection/IterableViewLike
  minor version: 0
  major version: 49
  Constant pool:
Asciz	SourceFile;
Asciz	IterableViewLike.scala;
Asciz	zip;
Asciz	(Lscala/collection/Iterable;Lscala/collection/generic/CanBuildFrom;)Ljava/lang/Object;;
Asciz	<A1:Ljava/lang/Object;B:Ljava/lang/Object;That:Ljava/lang/Object;>(Lscala/collection/Iterable<TB;>;Lscala/collection/generic/CanBuildFrom<TThis;Lscala/Tuple2<TA1;TB;>;TThat;>;)TThat;;
Asciz	Signature;
Asciz	zipWithIndex;
Asciz	(Lscala/collection/generic/CanBuildFrom;)Ljava/lang/Object;;
Asciz	<A1:Ljava/lang/Object;That:Ljava/lang/Object;>(Lscala/collection/generic/CanBuildFrom<TThis;Lscala/Tuple2<TA1;Ljava/lang/Integer;>;TThat;>;)TThat;;
Asciz	zipAll;
Asciz	(Lscala/collection/Iterable;Ljava/lang/Object;Ljava/lang/Object;Lscala/collection/generic/CanBuildFrom;)Ljava/lang/Object;;
Asciz	<B:Ljava/lang/Object;A1:Ljava/lang/Object;That:Ljava/lang/Object;>(Lscala/collection/Iterable<TB;>;TA1;TB;Lscala/collection/generic/CanBuildFrom<TThis;Lscala/Tuple2<TA1;TB;>;TThat;>;)TThat;;
Asciz	newZipped;
Asciz	(Lscala/collection/Iterable;)Lscala/collection/IterableViewLike$Transformed;;
Asciz	<B:Ljava/lang/Object;>(Lscala/collection/Iterable<TB;>;)Lscala/collection/IterableViewLike<TA;TColl;TThis;>.Transformed<Lscala/Tuple2<TA;TB;>;>;;
Asciz	newZippedAll;
Asciz	(Lscala/collection/Iterable;Ljava/lang/Object;Ljava/lang/Object;)Lscala/collection/IterableViewLike$Transformed;;
Asciz	<A1:Ljava/lang/Object;B:Ljava/lang/Object;>(Lscala/collection/Iterable<TB;>;TA1;TB;)Lscala/collection/IterableViewLike<TA;TColl;TThis;>.Transformed<Lscala/Tuple2<TA1;TB;>;>;;
Asciz	newForced;
Asciz	(Lscala/Function0;)Lscala/collection/IterableViewLike$Transformed;;
Asciz	<B:Ljava/lang/Object;>(Lscala/Function0<Lscala/collection/Seq<TB;>;>;)Lscala/collection/IterableViewLike<TA;TColl;TThis;>.Transformed<TB;>;;
Asciz	newAppended;
Asciz	(Lscala/collection/Traversable;)Lscala/collection/IterableViewLike$Transformed;;
Asciz	<B:Ljava/lang/Object;>(Lscala/collection/Traversable<TB;>;)Lscala/collection/IterableViewLike<TA;TColl;TThis;>.Transformed<TB;>;;
Asciz	newMapped;
Asciz	(Lscala/Function1;)Lscala/collection/IterableViewLike$Transformed;;
Asciz	<B:Ljava/lang/Object;>(Lscala/Function1<TA;TB;>;)Lscala/collection/IterableViewLike<TA;TColl;TThis;>.Transformed<TB;>;;
Asciz	newFlatMapped;
Asciz	<B:Ljava/lang/Object;>(Lscala/Function1<TA;Lscala/collection/Traversable<TB;>;>;)Lscala/collection/IterableViewLike<TA;TColl;TThis;>.Transformed<TB;>;;
Asciz	newFiltered;
Asciz	(Lscala/Function1<TA;Ljava/lang/Boolean;>;)Lscala/collection/IterableViewLike<TA;TColl;TThis;>.Transformed<TA;>;;
Asciz	newSliced;
Asciz	(II)Lscala/collection/IterableViewLike$Transformed;;
Asciz	(II)Lscala/collection/IterableViewLike<TA;TColl;TThis;>.Transformed<TA;>;;
Asciz	newDroppedWhile;
Asciz	newTakenWhile;
Asciz	grouped;
Asciz	(I)Lscala/collection/Iterator;;
Asciz	(I)Lscala/collection/Iterator<TThis;>;;
Asciz	sliding;
Asciz	(II)Lscala/collection/Iterator;;
Asciz	<B:Ljava/lang/Object;>(II)Lscala/collection/Iterator<TThis;>;;
Asciz	stringPrefix;
Asciz	()Ljava/lang/String;;
Asciz	<A:Ljava/lang/Object;Coll:Ljava/lang/Object;This::Lscala/collection/IterableView<TA;TColl;>;:Lscala/collection/IterableViewLike<TA;TColl;TThis;>;>Ljava/lang/Object;Lscala/collection/Iterable<TA;>;Lscala/collection/IterableLike<TA;TThis;>;Lscala/collection/TraversableView<TA;TColl;>;Lscala/collection/TraversableViewLike<TA;TColl;TThis;>;Lscala/ScalaObject;;
Asciz	ScalaSig;
Asciz	InnerClasses;
Asciz	scala/collection/IterableViewLike$Zipped;
class	scala/collection/IterableViewLike$Zipped
Asciz	scala/collection/IterableViewLike;
class	scala/collection/IterableViewLike
Asciz	Zipped;
Asciz	scala/collection/IterableViewLike$Mapped;
class	scala/collection/IterableViewLike$Mapped
Asciz	Mapped;
Asciz	scala/collection/IterableViewLike$Sliced;
class	scala/collection/IterableViewLike$Sliced
Asciz	Sliced;
Asciz	scala/collection/IterableViewLike$Forced;
class	scala/collection/IterableViewLike$Forced
Asciz	Forced;
Asciz	scala/collection/IterableViewLike$$anon$8;
class	scala/collection/IterableViewLike$$anon$8
Asciz	$anon$8;
Asciz	scala/collection/IterableViewLike$$anon$7;
class	scala/collection/IterableViewLike$$anon$7
Asciz	$anon$7;
Asciz	scala/collection/IterableViewLike$$anon$6;
class	scala/collection/IterableViewLike$$anon$6
Asciz	$anon$6;
Asciz	scala/collection/IterableViewLike$$anon$5;
class	scala/collection/IterableViewLike$$anon$5
Asciz	$anon$5;
Asciz	scala/collection/IterableViewLike$$anon$4;
class	scala/collection/IterableViewLike$$anon$4
Asciz	$anon$4;
Asciz	scala/collection/IterableViewLike$$anon$3;
class	scala/collection/IterableViewLike$$anon$3
Asciz	$anon$3;
Asciz	scala/collection/IterableViewLike$$anon$2;
class	scala/collection/IterableViewLike$$anon$2
Asciz	$anon$2;
Asciz	scala/collection/IterableViewLike$$anon$1;
class	scala/collection/IterableViewLike$$anon$1
Asciz	$anon$1;
Asciz	scala/collection/IterableViewLike$$anon$9;
class	scala/collection/IterableViewLike$$anon$9
Asciz	$anon$9;
Asciz	scala/collection/IterableViewLike$$anon$10;
class	scala/collection/IterableViewLike$$anon$10
Asciz	$anon$10;
Asciz	scala/collection/IterableViewLike$Filtered;
class	scala/collection/IterableViewLike$Filtered
Asciz	Filtered;
Asciz	scala/collection/IterableViewLike$Appended;
class	scala/collection/IterableViewLike$Appended
Asciz	Appended;
Asciz	scala/collection/IterableViewLike$ZippedAll;
class	scala/collection/IterableViewLike$ZippedAll
Asciz	ZippedAll;
Asciz	scala/collection/IterableViewLike$TakenWhile;
class	scala/collection/IterableViewLike$TakenWhile
Asciz	TakenWhile;
Asciz	scala/collection/IterableViewLike$FlatMapped;
class	scala/collection/IterableViewLike$FlatMapped
Asciz	FlatMapped;
Asciz	scala/collection/IterableViewLike$Transformed;
class	scala/collection/IterableViewLike$Transformed
Asciz	Transformed;
Asciz	scala/collection/IterableViewLike$Zipped$class;
class	scala/collection/IterableViewLike$Zipped$class
Asciz	Zipped$class;
Asciz	scala/collection/IterableViewLike$Sliced$class;
class	scala/collection/IterableViewLike$Sliced$class
Asciz	Sliced$class;
Asciz	scala/collection/IterableViewLike$Mapped$class;
class	scala/collection/IterableViewLike$Mapped$class
Asciz	Mapped$class;
Asciz	scala/collection/IterableViewLike$Forced$class;
class	scala/collection/IterableViewLike$Forced$class
Asciz	Forced$class;
Asciz	scala/collection/IterableViewLike$DroppedWhile;
class	scala/collection/IterableViewLike$DroppedWhile
Asciz	DroppedWhile;
Asciz	scala/collection/IterableViewLike$Filtered$class;
class	scala/collection/IterableViewLike$Filtered$class
Asciz	Filtered$class;
Asciz	scala/collection/IterableViewLike$Appended$class;
class	scala/collection/IterableViewLike$Appended$class
Asciz	Appended$class;
Asciz	scala/collection/IterableViewLike$ZippedAll$class;
class	scala/collection/IterableViewLike$ZippedAll$class
Asciz	ZippedAll$class;
Asciz	scala/collection/IterableViewLike$TakenWhile$class;
class	scala/collection/IterableViewLike$TakenWhile$class
Asciz	TakenWhile$class;
Asciz	scala/collection/IterableViewLike$FlatMapped$class;
class	scala/collection/IterableViewLike$FlatMapped$class
Asciz	FlatMapped$class;
Asciz	scala/collection/IterableViewLike$$anonfun$sliding$1;
class	scala/collection/IterableViewLike$$anonfun$sliding$1
Asciz	$anonfun$sliding$1;
Asciz	scala/collection/IterableViewLike$$anonfun$grouped$1;
class	scala/collection/IterableViewLike$$anonfun$grouped$1
Asciz	$anonfun$grouped$1;
Asciz	scala/collection/IterableViewLike$DroppedWhile$class;
class	scala/collection/IterableViewLike$DroppedWhile$class
Asciz	DroppedWhile$class;
Asciz	java/lang/Object;
class	java/lang/Object
Asciz	scala/collection/Iterable;
class	scala/collection/Iterable
Asciz	scala/collection/IterableLike;
class	scala/collection/IterableLike
Asciz	scala/collection/TraversableView;
class	scala/collection/TraversableView
Asciz	scala/collection/TraversableViewLike;
class	scala/collection/TraversableViewLike
Asciz	scala/ScalaObject;
class	scala/ScalaObject

{
public abstract java.lang.Object zip(scala.collection.Iterable, scala.collection.generic.CanBuildFrom);
  Signature: (Lscala/collection/Iterable;Lscala/collection/generic/CanBuildFrom;)Ljava/lang/Object;
  Signature: length = 0x2
   00 05 

public abstract java.lang.Object zipWithIndex(scala.collection.generic.CanBuildFrom);
  Signature: (Lscala/collection/generic/CanBuildFrom;)Ljava/lang/Object;
  Signature: length = 0x2
   00 09 

public abstract java.lang.Object zipAll(scala.collection.Iterable, java.lang.Object, java.lang.Object, scala.collection.generic.CanBuildFrom);
  Signature: (Lscala/collection/Iterable;Ljava/lang/Object;Ljava/lang/Object;Lscala/collection/generic/CanBuildFrom;)Ljava/lang/Object;
  Signature: length = 0x2
   00 0C 

public abstract scala.collection.IterableViewLike$Transformed newZipped(scala.collection.Iterable);
  Signature: (Lscala/collection/Iterable;)Lscala/collection/IterableViewLike$Transformed;
  Signature: length = 0x2
   00 0F 

public abstract scala.collection.IterableViewLike$Transformed newZippedAll(scala.collection.Iterable, java.lang.Object, java.lang.Object);
  Signature: (Lscala/collection/Iterable;Ljava/lang/Object;Ljava/lang/Object;)Lscala/collection/IterableViewLike$Transformed;
  Signature: length = 0x2
   00 12 

public abstract scala.collection.IterableViewLike$Transformed newForced(scala.Function0);
  Signature: (Lscala/Function0;)Lscala/collection/IterableViewLike$Transformed;
  Signature: length = 0x2
   00 15 

public abstract scala.collection.IterableViewLike$Transformed newAppended(scala.collection.Traversable);
  Signature: (Lscala/collection/Traversable;)Lscala/collection/IterableViewLike$Transformed;
  Signature: length = 0x2
   00 18 

public abstract scala.collection.IterableViewLike$Transformed newMapped(scala.Function1);
  Signature: (Lscala/Function1;)Lscala/collection/IterableViewLike$Transformed;
  Signature: length = 0x2
   00 1B 

public abstract scala.collection.IterableViewLike$Transformed newFlatMapped(scala.Function1);
  Signature: (Lscala/Function1;)Lscala/collection/IterableViewLike$Transformed;
  Signature: length = 0x2
   00 1D 

public abstract scala.collection.IterableViewLike$Transformed newFiltered(scala.Function1);
  Signature: (Lscala/Function1;)Lscala/collection/IterableViewLike$Transformed;
  Signature: length = 0x2
   00 1F 

public abstract scala.collection.IterableViewLike$Transformed newSliced(int, int);
  Signature: (II)Lscala/collection/IterableViewLike$Transformed;
  Signature: length = 0x2
   00 22 

public abstract scala.collection.IterableViewLike$Transformed newDroppedWhile(scala.Function1);
  Signature: (Lscala/Function1;)Lscala/collection/IterableViewLike$Transformed;
  Signature: length = 0x2
   00 1F 

public abstract scala.collection.IterableViewLike$Transformed newTakenWhile(scala.Function1);
  Signature: (Lscala/Function1;)Lscala/collection/IterableViewLike$Transformed;
  Signature: length = 0x2
   00 1F 

public abstract scala.collection.Iterator grouped(int);
  Signature: (I)Lscala/collection/Iterator;
  Signature: length = 0x2
   00 27 

public abstract scala.collection.Iterator sliding(int, int);
  Signature: (II)Lscala/collection/Iterator;
  Signature: length = 0x2
   00 2A 

public abstract java.lang.String stringPrefix();
  Signature: ()Ljava/lang/String;

}

