Compiled from "package.scala"
public final class scala.collection.package extends java.lang.Object
  SourceFile: "package.scala"
  ScalaSig: length = 0x16B
   05 00 3C 07 05 01 02 FFFFFF88 02 07 01 07 70 61 63 6B
   61 67 65 0A 02 03 04 01 0A 63 6F 6C 6C 65 63 74
   69 6F 6E 0A 01 05 01 05 73 63 61 6C 61 03 00 10
   02 08 09 0D 01 02 06 08 0A 02 FFFFFF84 FFFFFF80 FFFFFF80 FFFFFF88 02 0B
   02 07 70 61 63 6B 61 67 65 13 03 09 0C 14 10 02
   0D 12 0D 01 0E 0A 02 0F 10 01 04 6C 61 6E 67 0A
   01 11 01 04 6A 61 76 61 09 02 13 0E 02 06 4F 62
   6A 65 63 74 10 02 15 16 0D 01 04 09 02 17 04 02
   0B 53 63 61 6C 61 4F 62 6A 65 63 74 08 05 19 09
   FFFFFF84 00 1A 01 06 3C 69 6E 69 74 3E 14 01 07 08 05
   1C 09 FFFFFF84 00 1D 01 08 62 72 65 61 6B 4F 75 74 15
   04 1E 2A 34 37 16 02 1F 39 12 03 20 0C 22 06 08
   21 1B FFFFFF84 FFFFFF80 FFFFFF80 FFFFFF80 00 1F 02 0C 3C 72 65 66 69 6E
   65 6D 65 6E 74 3E 10 05 23 26 28 33 36 0D 01 24
   0A 02 25 02 01 07 67 65 6E 65 72 69 63 09 02 27
   24 02 0C 43 61 6E 42 75 69 6C 64 46 72 6F 6D 10
   02 29 2A 0C 00 04 08 2B 1B FFFFFF84 FFFFFF80 FFFFFF80 FFFFFFC2 00 2C 02
   04 46 72 6F 6D 11 02 2D 30 10 02 15 2E 09 02 2F
   04 02 07 4E 6F 74 68 69 6E 67 10 02 15 31 09 02
   32 04 02 03 41 6E 79 10 02 29 34 04 08 35 1B FFFFFF84
   FFFFFF80 FFFFFF80 FFFFFFC2 00 2C 02 01 54 10 02 29 37 04 08 38 1B
   FFFFFF84 FFFFFF80 FFFFFF80 FFFFFFC2 00 2C 02 02 54 6F 08 05 3A 1B FFFFFFC0 01
   3B 01 01 62 10 05 23 26 2D 33 36 
  InnerClass: 
   public final $anon$1=class scala/collection/package$$anon$1 of class scala/collection/package
  minor version: 0
  major version: 49
  Constant pool:
Asciz	SourceFile;
Asciz	package.scala;
Asciz	breakOut;
Asciz	(Lscala/collection/generic/CanBuildFrom;)Ljava/lang/Object;;
Asciz	Code;
Asciz	scala/collection/package$;
class	scala/collection/package$
Asciz	MODULE$;
Asciz	Lscala/collection/package$;;
NameAndType	MODULE$:Lscala/collection/package$;
Field	scala/collection/package$.MODULE$:Lscala/collection/package$;
NameAndType	breakOut:(Lscala/collection/generic/CanBuildFrom;)Ljava/lang/Object;
Method	scala/collection/package$.breakOut:(Lscala/collection/generic/CanBuildFrom;)Ljava/lang/Object;
Asciz	<From:Ljava/lang/Object;T:Ljava/lang/Object;To:Ljava/lang/Object;>(Lscala/collection/generic/CanBuildFrom<Lscala/runtime/Nothing$;TT;TTo;>;)Ljava/lang/Object;;
Asciz	Signature;
Asciz	ScalaSig;
Asciz	InnerClasses;
Asciz	scala/collection/package$$anon$1;
class	scala/collection/package$$anon$1
Asciz	scala/collection/package;
class	scala/collection/package
Asciz	$anon$1;
Asciz	java/lang/Object;
class	java/lang/Object

{
public static final java.lang.Object breakOut(scala.collection.generic.CanBuildFrom);
  Signature: (Lscala/collection/generic/CanBuildFrom;)Ljava/lang/Object;
  Code:
   Stack=2, Locals=1, Args_size=1
	getstatic	Field scala/collection/package$.MODULE$:Lscala/collection/package$;
	aload_0
	invokevirtual	Method scala/collection/package$.breakOut:(Lscala/collection/generic/CanBuildFrom;)Ljava/lang/Object;
	areturn
  Labels:
  Signature: length = 0x2
   00 0E 

}

