Compiled from "Sequence.scala"
public interface scala.collection.Sequence extends scala.PartialFunction,scala.collection.Iterable,scala.collection.generic.TraversableClass,scala.collection.generic.SequenceTemplate,scala.ScalaObject
  SourceFile: "Sequence.scala"
  Signature: length = 0x2
   00 07 
  ScalaSig: length = 0x3A8
   05 00 FFFFFF81 08 06 07 01 02 FFFFFF90 FFFFFF80 FFFFFF81 00 07 02 08 53
   65 71 75 65 6E 63 65 0A 02 03 04 01 0A 63 6F 6C
   6C 65 63 74 69 6F 6E 0A 01 05 01 05 73 63 61 6C
   61 03 00 15 02 08 1A 13 07 00 09 11 23 27 2E 32
   10 02 0A 0F 0D 01 0B 0A 02 0C 0D 01 04 6C 61 6E
   67 0A 01 0E 01 04 6A 61 76 61 09 02 10 0B 02 06
   4F 62 6A 65 63 74 10 04 12 13 15 18 0D 01 04 09
   02 14 04 02 0F 50 61 72 74 69 61 6C 46 75 6E 63
   74 69 6F 6E 10 02 12 16 09 02 17 04 02 03 49 6E
   74 10 02 19 1A 0C 00 04 08 1B 00 FFFFFF84 FFFFFF80 FFFFFF84 FFFFFFC2 00
   1C 02 01 41 11 02 1D 20 10 02 12 1E 09 02 1F 04
   02 07 4E 6F 74 68 69 6E 67 10 02 12 21 09 02 22
   04 02 03 41 6E 79 10 03 24 25 18 0D 01 02 09 02
   26 02 02 08 49 74 65 72 61 62 6C 65 10 04 28 2B
   18 2D 0D 01 29 0A 02 2A 02 01 07 67 65 6E 65 72
   69 63 09 02 2C 29 02 10 54 72 61 76 65 72 73 61
   62 6C 65 43 6C 61 73 73 10 02 24 00 10 04 28 2F
   18 31 09 02 30 29 02 10 53 65 71 75 65 6E 63 65
   54 65 6D 70 6C 61 74 65 10 03 24 00 18 10 02 12
   33 09 02 34 04 02 0B 53 63 61 6C 61 4F 62 6A 65
   63 74 08 05 36 00 FFFFFF84 00 37 01 06 24 69 6E 69 74
   24 14 01 38 10 02 12 39 09 02 3A 04 02 04 55 6E
   69 74 08 05 3C 00 FFFFFF84 20 3D 01 09 63 6F 6D 70 61
   6E 69 6F 6E 15 01 3E 10 03 28 3F 2D 09 02 40 29
   02 09 43 6F 6D 70 61 6E 69 6F 6E 07 05 42 02 FFFFFF88
   02 43 01 08 53 65 71 75 65 6E 63 65 10 02 24 44
   06 08 01 02 FFFFFF84 FFFFFF80 FFFFFF80 FFFFFF88 02 45 13 03 44 46 32 10
   03 28 47 2D 09 02 48 29 02 0F 53 65 71 75 65 6E
   63 65 46 61 63 74 6F 72 79 08 05 4A 44 FFFFFF84 00 4B
   01 06 3C 69 6E 69 74 3E 14 01 43 08 05 4D 44 FFFFFF84
   01 4E 01 0E 62 75 69 6C 64 65 72 46 61 63 74 6F
   72 79 15 02 4F 53 10 05 28 50 52 54 55 09 02 51
   29 02 0E 42 75 69 6C 64 65 72 46 61 63 74 6F 72
   79 10 02 19 53 04 08 1B 4C FFFFFF84 FFFFFF80 FFFFFF80 FFFFFFC2 00 1C 10
   03 24 00 52 10 02 56 57 0D 01 44 09 02 58 3F 02
   04 43 6F 6C 6C 08 05 5A 44 FFFFFF84 00 5B 01 0A 6E 65
   77 42 75 69 6C 64 65 72 15 02 5C 60 10 04 28 5D
   5F 61 09 02 5E 29 02 07 42 75 69 6C 64 65 72 10
   02 19 60 04 08 1B 59 FFFFFF84 FFFFFF80 FFFFFF80 FFFFFFC2 00 1C 10 03 24
   00 5F 05 04 63 44 00 64 02 0A 50 72 6F 6A 65 63
   74 69 6F 6E 15 02 65 69 10 04 28 66 68 55 09 02
   67 29 02 0C 53 65 71 75 65 6E 63 65 56 69 65 77
   10 02 19 69 04 08 1B 62 FFFFFF84 FFFFFF80 FFFFFF80 FFFFFFC2 00 1C 28 03
   62 6B 6E 10 02 12 6C 09 02 6D 04 02 0A 64 65 70
   72 65 63 61 74 65 64 21 01 6F 01 10 75 73 65 20
   56 69 65 77 20 69 6E 73 74 65 61 64 08 05 71 44
   FFFFFF84 00 72 01 09 73 69 6E 67 6C 65 74 6F 6E 15 02
   73 76 14 02 74 77 10 03 24 00 75 10 02 19 76 04
   08 1B 70 FFFFFF84 FFFFFF80 FFFFFF80 FFFFFFC2 00 1C 08 05 78 70 FFFFFFC0 00 75
   01 05 76 61 6C 75 65 28 03 70 6B 7A 21 01 7B 01
   1B 75 73 65 20 53 65 71 75 65 6E 63 65 28 76 61
   6C 75 65 29 20 69 6E 73 74 65 61 64 08 05 7D 44
   FFFFFF84 00 7E 01 06 73 69 6E 67 6C 65 15 03 7F FFFFFF81 02
   14 04 FFFFFF81 00 FFFFFF81 03 10 04 24 00 FFFFFF81 01 10 03 19 FFFFFF81
   02 04 08 1B 7C FFFFFF84 FFFFFF80 FFFFFF80 FFFFFFC2 00 1C 08 07 FFFFFF81 04 7C
   FFFFFFC0 00 FFFFFF81 01 01 01 78 28 04 7C 6B FFFFFF81 06 21 02 FFFFFF81
   07 01 25 75 73 65 20 3C 63 6F 64 65 3E 53 65 71
   75 65 6E 63 65 28 78 29 3C 2F 63 6F 64 65 3E 20
   69 6E 73 74 65 61 64 2E 
  minor version: 0
  major version: 49
  Constant pool:
const #1 = Asciz	SourceFile;
const #2 = Asciz	Sequence.scala;
const #3 = Asciz	companion;
const #4 = Asciz	()Lscala/collection/generic/Companion;;
const #5 = Asciz	()Lscala/collection/generic/Companion<Lscala/collection/Sequence<TA;>;>;;
const #6 = Asciz	Signature;
const #7 = Asciz	<A:Ljava/lang/Object;>Ljava/lang/Object;Lscala/PartialFunction<Ljava/lang/Integer;TA;>;Lscala/collection/Iterable<TA;>;Lscala/collection/generic/TraversableClass<TA;Lscala/collection/Sequence<TA;>;>;Lscala/collection/generic/SequenceTemplate<TA;Lscala/collection/Sequence<TA;>;>;Lscala/ScalaObject;;
const #8 = Asciz	ScalaSig;
const #9 = Asciz	scala/collection/Sequence;
const #10 = class	#9;	//  scala/collection/Sequence
const #11 = Asciz	java/lang/Object;
const #12 = class	#11;	//  java/lang/Object
const #13 = Asciz	scala/PartialFunction;
const #14 = class	#13;	//  scala/PartialFunction
const #15 = Asciz	scala/collection/Iterable;
const #16 = class	#15;	//  scala/collection/Iterable
const #17 = Asciz	scala/collection/generic/TraversableClass;
const #18 = class	#17;	//  scala/collection/generic/TraversableClass
const #19 = Asciz	scala/collection/generic/SequenceTemplate;
const #20 = class	#19;	//  scala/collection/generic/SequenceTemplate
const #21 = Asciz	scala/ScalaObject;
const #22 = class	#21;	//  scala/ScalaObject

{
public abstract scala.collection.generic.Companion companion();
  Signature: length = 0x2
   00 05 

}

