Compiled from "SortedSetLike.scala"
public interface scala.collection.SortedSetLike extends scala.collection.generic.Sorted,scala.collection.SetLike,scala.ScalaObject
  SourceFile: "SortedSetLike.scala"
  Signature: length = 0x2
   00 1C 
  ScalaSig: length = 0x2D8
   05 00 77 06 07 01 02 FFFFFF90 FFFFFF80 FFFFFF81 00 07 02 0D 53 6F
   72 74 65 64 53 65 74 4C 69 6B 65 0A 02 03 04 01
   0A 63 6F 6C 6C 65 63 74 69 6F 6E 0A 01 05 01 05
   73 63 61 6C 61 03 00 15 03 08 19 24 13 05 00 09
   11 2F 32 10 02 0A 0F 0D 01 0B 0A 02 0C 0D 01 04
   6C 61 6E 67 0A 01 0E 01 04 6A 61 76 61 09 02 10
   0B 02 06 4F 62 6A 65 63 74 10 04 12 15 17 23 0D
   01 13 0A 02 14 02 01 07 67 65 6E 65 72 69 63 09
   02 16 13 02 06 53 6F 72 74 65 64 10 02 18 19 0C
   00 04 08 1A 00 FFFFFF84 FFFFFF80 FFFFFF80 FFFFFFC2 00 1B 02 01 41 11 02
   1C 20 10 02 1D 1E 0D 01 04 09 02 1F 04 02 07 4E
   6F 74 68 69 6E 67 10 02 1D 21 09 02 22 04 02 03
   41 6E 79 10 02 18 24 04 08 25 00 FFFFFF84 FFFFFF80 FFFFFF84 FFFFFFC2 00
   26 02 04 54 68 69 73 11 02 1C 27 12 03 28 2A 2E
   06 08 29 00 FFFFFF84 FFFFFF80 FFFFFF80 FFFFFF80 00 27 02 0C 3C 72 65 66
   69 6E 65 6D 65 6E 74 3E 10 03 2B 2C 17 0D 01 02
   09 02 2D 02 02 09 53 6F 72 74 65 64 53 65 74 10
   04 2B 00 17 23 10 04 2B 30 17 23 09 02 31 02 02
   07 53 65 74 4C 69 6B 65 10 02 1D 33 09 02 34 04
   02 0B 53 63 61 6C 61 4F 62 6A 65 63 74 08 05 36
   00 FFFFFF84 00 37 01 06 24 69 6E 69 74 24 14 01 38 10
   02 1D 39 09 02 3A 04 02 04 55 6E 69 74 08 05 3C
   00 FFFFFF86 01 3D 01 08 6F 72 64 65 72 69 6E 67 15 01
   3E 10 03 3F 47 17 0E 02 40 45 0E 02 41 44 0D 01
   42 0A 02 43 06 01 06 3C 72 6F 6F 74 3E 09 01 05
   09 02 46 04 01 07 70 61 63 6B 61 67 65 09 02 48
   49 02 08 4F 72 64 65 72 69 6E 67 0A 02 46 04 08
   05 4B 00 FFFFFF84 20 4C 01 06 6B 65 79 53 65 74 15 01
   23 08 05 4E 00 FFFFFF84 20 4F 01 08 66 69 72 73 74 4B
   65 79 15 01 17 08 05 51 00 FFFFFF84 20 4F 01 07 6C 61
   73 74 4B 65 79 08 05 53 00 FFFFFF86 00 54 01 09 72 61
   6E 67 65 49 6D 70 6C 14 03 23 55 5A 08 05 56 52
   FFFFFFC0 00 57 01 04 66 72 6F 6D 10 03 1D 58 17 09 02
   59 04 02 06 4F 70 74 69 6F 6E 08 05 5B 52 FFFFFFC0 00
   57 01 05 75 6E 74 69 6C 08 05 56 00 FFFFFF84 20 5D 14
   02 23 5E 08 05 56 5C FFFFFFC0 00 17 08 05 5B 00 FFFFFF84 20
   60 14 02 23 61 08 05 5B 5F FFFFFFC0 00 17 08 05 63 00
   FFFFFF84 20 64 01 05 72 61 6E 67 65 14 03 23 65 66 08
   05 56 62 FFFFFFC0 00 17 08 05 5B 62 FFFFFFC0 00 17 08 05 68
   00 FFFFFF84 20 69 01 08 73 75 62 73 65 74 4F 66 14 02
   6A 6D 10 02 1D 6B 09 02 6C 04 02 07 42 6F 6F 6C
   65 61 6E 08 05 6E 67 FFFFFFC0 00 6F 01 04 74 68 61 74
   10 03 2B 70 17 09 02 71 02 02 03 53 65 74 08 09
   73 00 FFFFFF81 FFFFFF80 FFFFFF80 FFFFFF84 04 74 76 01 0E 73 75 70 65 72
   24 73 75 62 73 65 74 4F 66 14 02 6A 75 08 05 6E
   72 FFFFFFC0 00 6F 09 02 68 30 
  minor version: 0
  major version: 49
  Constant pool:
Asciz	SourceFile;
Asciz	SortedSetLike.scala;
Asciz	scala$collection$SortedSetLike$$super$subsetOf;
Asciz	(Lscala/collection/Set;)Z;
Asciz	ordering;
Asciz	()Lscala/math/Ordering;;
Asciz	()Lscala/math/Ordering<TA;>;;
Asciz	Signature;
Asciz	keySet;
Asciz	()Lscala/collection/SortedSet;;
Asciz	()TThis;;
Asciz	firstKey;
Asciz	()Ljava/lang/Object;;
Asciz	()TA;;
Asciz	lastKey;
Asciz	rangeImpl;
Asciz	(Lscala/Option;Lscala/Option;)Lscala/collection/SortedSet;;
Asciz	(Lscala/Option<TA;>;Lscala/Option<TA;>;)TThis;;
Asciz	from;
Asciz	(Ljava/lang/Object;)Lscala/collection/SortedSet;;
Asciz	(TA;)TThis;;
Asciz	until;
Asciz	range;
Asciz	(Ljava/lang/Object;Ljava/lang/Object;)Lscala/collection/SortedSet;;
Asciz	(TA;TA;)TThis;;
Asciz	subsetOf;
Asciz	(Lscala/collection/Set<TA;>;)Z;
Asciz	<A:Ljava/lang/Object;This::Lscala/collection/SortedSet<TA;>;:Lscala/collection/SortedSetLike<TA;TThis;>;>Ljava/lang/Object;Lscala/collection/generic/Sorted<TA;TThis;>;Lscala/collection/SetLike<TA;TThis;>;Lscala/ScalaObject;;
Asciz	ScalaSig;
Asciz	scala/collection/SortedSetLike;
class	scala/collection/SortedSetLike
Asciz	java/lang/Object;
class	java/lang/Object
Asciz	scala/collection/generic/Sorted;
class	scala/collection/generic/Sorted
Asciz	scala/collection/SetLike;
class	scala/collection/SetLike
Asciz	scala/ScalaObject;
class	scala/ScalaObject

{
public abstract boolean scala$collection$SortedSetLike$$super$subsetOf(scala.collection.Set);
  Signature: (Lscala/collection/Set;)Z

public abstract scala.math.Ordering ordering();
  Signature: ()Lscala/math/Ordering;
  Signature: length = 0x2
   00 07 

public abstract scala.collection.SortedSet keySet();
  Signature: ()Lscala/collection/SortedSet;
  Signature: length = 0x2
   00 0B 

public abstract java.lang.Object firstKey();
  Signature: ()Ljava/lang/Object;
  Signature: length = 0x2
   00 0E 

public abstract java.lang.Object lastKey();
  Signature: ()Ljava/lang/Object;
  Signature: length = 0x2
   00 0E 

public abstract scala.collection.SortedSet rangeImpl(scala.Option, scala.Option);
  Signature: (Lscala/Option;Lscala/Option;)Lscala/collection/SortedSet;
  Signature: length = 0x2
   00 12 

public abstract scala.collection.SortedSet from(java.lang.Object);
  Signature: (Ljava/lang/Object;)Lscala/collection/SortedSet;
  Signature: length = 0x2
   00 15 

public abstract scala.collection.SortedSet until(java.lang.Object);
  Signature: (Ljava/lang/Object;)Lscala/collection/SortedSet;
  Signature: length = 0x2
   00 15 

public abstract scala.collection.SortedSet range(java.lang.Object, java.lang.Object);
  Signature: (Ljava/lang/Object;Ljava/lang/Object;)Lscala/collection/SortedSet;
  Signature: length = 0x2
   00 19 

public abstract boolean subsetOf(scala.collection.Set);
  Signature: (Lscala/collection/Set;)Z
  Signature: length = 0x2
   00 1B 

}

