Compiled from "DelegatingScheduler.scala"
public interface scala.actors.scheduler.DelegatingScheduler extends scala.actors.IScheduler,scala.ScalaObject
  SourceFile: "DelegatingScheduler.scala"
  ScalaSig: length = 0x2FB
   05 00 70 06 09 01 02 FFFFFF84 FFFFFF90 FFFFFF80 FFFFFF81 00 04 08 02 13
   44 65 6C 65 67 61 74 69 6E 67 53 63 68 65 64 75
   6C 65 72 0A 02 03 04 01 09 73 63 68 65 64 75 6C
   65 72 0A 02 05 06 01 06 61 63 74 6F 72 73 0A 01
   07 01 05 73 63 61 6C 61 13 04 00 09 11 15 10 02
   0A 0F 0D 01 0B 0A 02 0C 0D 01 04 6C 61 6E 67 0A
   01 0E 01 04 6A 61 76 61 09 02 10 0B 02 06 4F 62
   6A 65 63 74 10 02 12 13 0D 01 04 09 02 14 04 02
   0A 49 53 63 68 65 64 75 6C 65 72 10 02 16 17 0D
   01 06 09 02 18 06 02 0B 53 63 61 6C 61 4F 62 6A
   65 63 74 08 05 1A 00 FFFFFF84 00 1C 01 06 24 69 6E 69
   74 24 03 00 14 01 1D 10 02 16 1E 09 02 1F 06 02
   04 55 6E 69 74 08 05 21 00 FFFFFF86 08 22 01 10 6D 61
   6B 65 4E 65 77 53 63 68 65 64 75 6C 65 72 14 01
   11 08 07 24 00 FFFFFFC0 FFFFFF80 FFFFFF84 08 25 01 05 73 63 68 65
   64 15 01 11 08 07 27 00 FFFFFFC0 FFFFFF80 FFFFFF84 08 28 01 09 73
   63 68 65 64 5F 24 65 71 14 02 1D 29 08 07 2A 26
   FFFFFF81 FFFFFF80 FFFFFFC0 00 11 01 03 78 24 31 08 06 2C 00 FFFFFFA0 FFFFFFA0
   04 11 01 06 73 63 68 65 64 20 08 05 2E 00 FFFFFF84 02
   25 01 04 69 6D 70 6C 08 05 30 00 FFFFFF84 02 31 01 08
   69 6D 70 6C 5F 24 65 71 14 02 1D 32 08 05 03 2F
   FFFFFFC0 00 11 08 05 34 00 FFFFFF84 00 35 01 08 69 73 41 63
   74 69 76 65 15 01 36 10 02 16 37 09 02 38 06 02
   07 42 6F 6F 6C 65 61 6E 08 05 3A 00 FFFFFF84 00 3B 01
   07 65 78 65 63 75 74 65 14 02 1D 3C 08 06 3D 39
   FFFFFF84 FFFFFFC0 00 3E 01 03 66 75 6E 10 03 16 3F 1D 09 02
   40 06 02 08 3C 62 79 6E 61 6D 65 3E 08 05 3A 00
   FFFFFF84 00 42 14 02 1D 43 08 05 44 41 FFFFFFC0 00 45 01 04
   74 61 73 6B 10 02 0A 46 09 02 47 0B 02 08 52 75
   6E 6E 61 62 6C 65 08 05 49 00 FFFFFF84 20 4A 01 10 65
   78 65 63 75 74 65 46 72 6F 6D 41 63 74 6F 72 14
   02 1D 4B 08 05 44 48 FFFFFFC0 00 45 08 05 4D 00 FFFFFF84 00
   1C 01 08 73 68 75 74 64 6F 77 6E 08 05 4F 00 FFFFFF84
   00 50 01 08 6E 65 77 41 63 74 6F 72 14 02 1D 51
   08 05 52 4E FFFFFFC0 00 53 01 05 61 63 74 6F 72 10 02
   54 57 0E 02 12 55 09 02 56 04 01 07 70 61 63 6B
   61 67 65 09 02 58 59 02 0E 54 72 61 63 6B 65 64
   52 65 61 63 74 6F 72 0A 02 56 04 08 05 5B 00 FFFFFF84
   00 5C 01 0A 74 65 72 6D 69 6E 61 74 65 64 14 02
   1D 5D 08 05 52 5A FFFFFFC0 00 53 08 05 5F 00 FFFFFF84 00 60
   01 0B 6F 6E 54 65 72 6D 69 6E 61 74 65 14 02 61
   64 14 02 1D 62 08 06 63 5E FFFFFF84 FFFFFFC0 00 3E 01 01 66
   08 05 52 5E FFFFFFC0 00 53 08 05 66 00 FFFFFF84 20 67 01 0C
   6D 61 6E 61 67 65 64 42 6C 6F 63 6B 14 02 1D 68
   08 05 69 65 FFFFFFC0 00 6A 01 07 62 6C 6F 63 6B 65 72
   10 02 6B 6E 0D 01 6C 0A 02 6D 06 01 0A 63 6F 6E
   63 75 72 72 65 6E 74 09 02 6F 6C 02 0E 4D 61 6E
   61 67 65 64 42 6C 6F 63 6B 65 72 
  minor version: 0
  major version: 49
  Constant pool:
Asciz	SourceFile;
Asciz	DelegatingScheduler.scala;
Asciz	makeNewScheduler;
Asciz	()Lscala/actors/IScheduler;;
Asciz	sched;
Asciz	sched_$eq;
Asciz	(Lscala/actors/IScheduler;)V;
Asciz	impl;
Asciz	impl_$eq;
Asciz	isActive;
Asciz	()Z;
Asciz	execute;
Asciz	(Lscala/Function0;)V;
Asciz	(Lscala/Function0<Ljava/lang/Object;>;)V;
Asciz	Signature;
Asciz	(Ljava/lang/Runnable;)V;
Asciz	executeFromActor;
Asciz	shutdown;
Asciz	()V;
Asciz	newActor;
Asciz	(Lscala/actors/Reactor;)V;
Asciz	(Lscala/actors/Reactor<*>;)V;
Asciz	terminated;
Asciz	onTerminate;
Asciz	(Lscala/actors/Reactor;Lscala/Function0;)V;
Asciz	(Lscala/actors/Reactor<*>;Lscala/Function0<Ljava/lang/Object;>;)V;
Asciz	managedBlock;
Asciz	(Lscala/concurrent/ManagedBlocker;)V;
Asciz	ScalaSig;
Asciz	scala/actors/scheduler/DelegatingScheduler;
class	scala/actors/scheduler/DelegatingScheduler
Asciz	java/lang/Object;
class	java/lang/Object
Asciz	scala/actors/IScheduler;
class	scala/actors/IScheduler
Asciz	scala/ScalaObject;
class	scala/ScalaObject

{
public abstract scala.actors.IScheduler makeNewScheduler();
  Signature: ()Lscala/actors/IScheduler;

public abstract scala.actors.IScheduler sched();
  Signature: ()Lscala/actors/IScheduler;

public abstract void sched_$eq(scala.actors.IScheduler);
  Signature: (Lscala/actors/IScheduler;)V

public abstract scala.actors.IScheduler impl();
  Signature: ()Lscala/actors/IScheduler;

public abstract void impl_$eq(scala.actors.IScheduler);
  Signature: (Lscala/actors/IScheduler;)V

public abstract boolean isActive();
  Signature: ()Z

public abstract void execute(scala.Function0);
  Signature: (Lscala/Function0;)V
  Signature: length = 0x2
   00 0E 

public abstract void execute(java.lang.Runnable);
  Signature: (Ljava/lang/Runnable;)V

public abstract void executeFromActor(java.lang.Runnable);
  Signature: (Ljava/lang/Runnable;)V

public abstract void shutdown();
  Signature: ()V

public abstract void newActor(scala.actors.Reactor);
  Signature: (Lscala/actors/Reactor;)V
  Signature: length = 0x2
   00 16 

public abstract void terminated(scala.actors.Reactor);
  Signature: (Lscala/actors/Reactor;)V
  Signature: length = 0x2
   00 16 

public abstract void onTerminate(scala.actors.Reactor, scala.Function0);
  Signature: (Lscala/actors/Reactor;Lscala/Function0;)V
  Signature: length = 0x2
   00 1A 

public abstract void managedBlock(scala.concurrent.ManagedBlocker);
  Signature: (Lscala/concurrent/ManagedBlocker;)V

}

