Compiled from "DelegatingScheduler.scala"
public interface scala.actors.scheduler.DelegatingScheduler extends scala.actors.IScheduler,scala.ScalaObject
  SourceFile: "DelegatingScheduler.scala"
  ScalaSig: length = 0x2DF
   05 00 6C 06 09 01 02 FFFFFF84 FFFFFF90 FFFFFF80 FFFFFF81 00 04 08 02 13
   44 65 6C 65 67 61 74 69 6E 67 53 63 68 65 64 75
   6C 65 72 0A 02 03 04 01 09 73 63 68 65 64 75 6C
   65 72 0A 02 05 06 01 06 61 63 74 6F 72 73 0A 01
   07 01 05 73 63 61 6C 61 13 04 00 09 11 15 10 02
   0A 0F 0D 01 0B 0A 02 0C 0D 01 04 6C 61 6E 67 0A
   01 0E 01 04 6A 61 76 61 09 02 10 0B 02 06 4F 62
   6A 65 63 74 10 02 12 13 0D 01 04 09 02 14 04 02
   0A 49 53 63 68 65 64 75 6C 65 72 10 02 16 17 0D
   01 06 09 02 18 06 02 0B 53 63 61 6C 61 4F 62 6A
   65 63 74 08 05 1A 00 FFFFFF84 00 1C 01 06 24 69 6E 69
   74 24 03 00 14 01 1D 10 02 16 1E 09 02 1F 06 02
   04 55 6E 69 74 08 05 21 00 FFFFFF86 08 22 01 10 6D 61
   6B 65 4E 65 77 53 63 68 65 64 75 6C 65 72 14 01
   11 08 07 24 00 FFFFFFC0 FFFFFF80 FFFFFF84 08 25 01 05 73 63 68 65
   64 15 01 11 08 07 27 00 FFFFFFC0 FFFFFF80 FFFFFF84 08 28 01 09 73
   63 68 65 64 5F 24 65 71 14 02 1D 29 08 07 2A 26
   FFFFFF81 FFFFFF80 FFFFFFC0 00 11 01 03 78 24 31 08 06 2C 00 FFFFFFA0 FFFFFFA0
   04 11 01 06 73 63 68 65 64 20 08 05 2E 00 FFFFFF84 02
   25 01 04 69 6D 70 6C 08 05 30 00 FFFFFF84 02 31 01 08
   69 6D 70 6C 5F 24 65 71 14 02 1D 32 08 05 03 2F
   FFFFFFC0 00 11 08 05 34 00 FFFFFF84 00 35 01 08 69 73 41 63
   74 69 76 65 15 01 36 10 02 16 37 09 02 38 06 02
   07 42 6F 6F 6C 65 61 6E 08 05 3A 00 FFFFFF84 00 3B 01
   07 65 78 65 63 75 74 65 14 02 1D 3C 08 06 3D 39
   FFFFFF84 FFFFFFC0 00 3E 01 03 66 75 6E 10 03 16 3F 1D 09 02
   40 06 02 08 3C 62 79 6E 61 6D 65 3E 08 05 3A 00
   FFFFFF84 00 42 14 02 1D 43 08 05 44 41 FFFFFFC0 00 45 01 04
   74 61 73 6B 10 02 0A 46 09 02 47 0B 02 08 52 75
   6E 6E 61 62 6C 65 08 05 49 00 FFFFFF84 20 4A 01 10 65
   78 65 63 75 74 65 46 72 6F 6D 41 63 74 6F 72 14
   02 1D 4B 08 05 44 48 FFFFFFC0 00 45 08 05 4D 00 FFFFFF84 00
   1C 01 08 73 68 75 74 64 6F 77 6E 08 05 4F 00 FFFFFF84
   00 50 01 08 6E 65 77 41 63 74 6F 72 14 02 1D 51
   08 05 52 4E FFFFFFC0 00 53 01 05 61 63 74 6F 72 10 02
   12 54 09 02 55 04 02 07 52 65 61 63 74 6F 72 08
   05 57 00 FFFFFF84 00 58 01 0A 74 65 72 6D 69 6E 61 74
   65 64 14 02 1D 59 08 05 52 56 FFFFFFC0 00 53 08 05 5B
   00 FFFFFF84 00 5C 01 0B 6F 6E 54 65 72 6D 69 6E 61 74
   65 14 02 5D 60 14 02 1D 5E 08 06 5F 5A FFFFFF84 FFFFFFC0 00
   3E 01 01 66 08 05 52 5A FFFFFFC0 00 53 08 05 62 00 FFFFFF84
   20 63 01 0C 6D 61 6E 61 67 65 64 42 6C 6F 63 6B
   14 02 1D 64 08 05 65 61 FFFFFFC0 00 66 01 07 62 6C 6F
   63 6B 65 72 10 02 67 6A 0D 01 68 0A 02 69 06 01
   0A 63 6F 6E 63 75 72 72 65 6E 74 09 02 6B 68 02
   0E 4D 61 6E 61 67 65 64 42 6C 6F 63 6B 65 72 
  minor version: 0
  major version: 49
  Constant pool:
const #1 = Asciz	SourceFile;
const #2 = Asciz	DelegatingScheduler.scala;
const #3 = Asciz	managedBlock;
const #4 = Asciz	(Lscala/concurrent/ManagedBlocker;)V;
const #5 = Asciz	onTerminate;
const #6 = Asciz	(Lscala/actors/Reactor;Lscala/Function0;)V;
const #7 = Asciz	(Lscala/actors/Reactor;Lscala/Function0<Ljava/lang/Object;>;)V;
const #8 = Asciz	Signature;
const #9 = Asciz	terminated;
const #10 = Asciz	(Lscala/actors/Reactor;)V;
const #11 = Asciz	newActor;
const #12 = Asciz	shutdown;
const #13 = Asciz	()V;
const #14 = Asciz	executeFromActor;
const #15 = Asciz	(Ljava/lang/Runnable;)V;
const #16 = Asciz	execute;
const #17 = Asciz	(Lscala/Function0;)V;
const #18 = Asciz	(Lscala/Function0<Ljava/lang/Object;>;)V;
const #19 = Asciz	isActive;
const #20 = Asciz	()Z;
const #21 = Asciz	impl_$eq;
const #22 = Asciz	(Lscala/actors/IScheduler;)V;
const #23 = Asciz	impl;
const #24 = Asciz	()Lscala/actors/IScheduler;;
const #25 = Asciz	sched_$eq;
const #26 = Asciz	sched;
const #27 = Asciz	makeNewScheduler;
const #28 = Asciz	ScalaSig;
const #29 = Asciz	scala/actors/scheduler/DelegatingScheduler;
const #30 = class	#29;	//  scala/actors/scheduler/DelegatingScheduler
const #31 = Asciz	java/lang/Object;
const #32 = class	#31;	//  java/lang/Object
const #33 = Asciz	scala/actors/IScheduler;
const #34 = class	#33;	//  scala/actors/IScheduler
const #35 = Asciz	scala/ScalaObject;
const #36 = class	#35;	//  scala/ScalaObject

{
public abstract void managedBlock(scala.concurrent.ManagedBlocker);

public abstract void onTerminate(scala.actors.Reactor, scala.Function0);
  Signature: length = 0x2
   00 07 

public abstract void terminated(scala.actors.Reactor);

public abstract void newActor(scala.actors.Reactor);

public abstract void shutdown();

public abstract void executeFromActor(java.lang.Runnable);

public abstract void execute(java.lang.Runnable);

public abstract void execute(scala.Function0);
  Signature: length = 0x2
   00 12 

public abstract boolean isActive();

public abstract void impl_$eq(scala.actors.IScheduler);

public abstract scala.actors.IScheduler impl();

public abstract void sched_$eq(scala.actors.IScheduler);

public abstract scala.actors.IScheduler sched();

public abstract scala.actors.IScheduler makeNewScheduler();

}

