Compiled from "TerminationService.scala"
public interface scala.actors.scheduler.TerminationService extends scala.actors.scheduler.TerminationMonitor,scala.ScalaObject
  SourceFile: "TerminationService.scala"
  ScalaSig: length = 0x222
   05 00 4C 06 0A 01 02 FFFFFF84 FFFFFF90 FFFFFF80 FFFFFF81 00 02 08 3F 02
   12 54 65 72 6D 69 6E 61 74 69 6F 6E 53 65 72 76
   69 63 65 0A 02 03 04 01 09 73 63 68 65 64 75 6C
   65 72 0A 02 05 06 01 06 61 63 74 6F 72 73 0A 01
   07 01 05 73 63 61 6C 61 13 04 00 09 11 15 10 02
   0A 0F 0D 01 0B 0A 02 0C 0D 01 04 6C 61 6E 67 0A
   01 0E 01 04 6A 61 76 61 09 02 10 0B 02 06 4F 62
   6A 65 63 74 10 02 12 13 0D 01 02 09 02 14 02 02
   12 54 65 72 6D 69 6E 61 74 69 6F 6E 4D 6F 6E 69
   74 6F 72 10 02 16 17 0D 01 06 09 02 18 06 02 0B
   53 63 61 6C 61 4F 62 6A 65 63 74 08 05 1A 00 FFFFFF84
   00 1C 01 06 24 69 6E 69 74 24 03 00 14 01 1D 10
   02 16 1E 09 02 1F 06 02 04 55 6E 69 74 08 07 21
   00 FFFFFFC0 FFFFFF80 FFFFFF84 04 22 01 0B 74 65 72 6D 69 6E 61 74
   69 6E 67 15 01 23 10 02 16 24 09 02 25 06 02 07
   42 6F 6F 6C 65 61 6E 08 07 27 00 FFFFFFC0 FFFFFF80 FFFFFF84 04 28
   01 0F 74 65 72 6D 69 6E 61 74 69 6E 67 5F 24 65
   71 14 02 1D 29 08 07 2A 26 FFFFFF81 FFFFFF80 FFFFFFC0 00 23 01 03
   78 24 31 08 06 2C 00 FFFFFFA0 FFFFFFA0 04 23 01 0C 74 65 72
   6D 69 6E 61 74 69 6E 67 20 08 07 2E 00 FFFFFFC2 FFFFFF80 FFFFFF84
   08 22 01 09 74 65 72 6D 69 6E 61 74 65 08 06 30
   00 FFFFFFA0 FFFFFF80 04 23 01 0A 74 65 72 6D 69 6E 61 74 65
   20 08 07 32 00 FFFFFFC2 FFFFFF80 FFFFFF84 08 33 01 0A 43 48 45 43
   4B 5F 46 52 45 51 15 01 34 10 02 16 35 09 02 36
   06 02 03 49 6E 74 08 06 38 00 FFFFFFA0 FFFFFF80 04 34 01 0B
   43 48 45 43 4B 5F 46 52 45 51 20 08 05 3A 00 FFFFFF86
   00 1C 01 0A 6F 6E 53 68 75 74 64 6F 77 6E 08 05
   3C 00 FFFFFF84 20 1C 01 03 72 75 6E 08 05 3E 00 FFFFFF84 00
   1C 01 08 73 68 75 74 64 6F 77 6E 12 03 40 42 43
   06 08 41 00 FFFFFF84 FFFFFF80 FFFFFF80 FFFFFF80 00 3F 02 0C 3C 72 65 66
   69 6E 65 6D 65 6E 74 3E 10 02 12 00 12 03 44 45
   48 06 08 41 00 FFFFFF84 FFFFFF80 FFFFFF80 FFFFFF80 00 43 10 02 0A 46 09
   02 47 0B 02 06 54 68 72 65 61 64 10 02 49 4A 0D
   01 04 09 02 4B 04 02 0A 49 53 63 68 65 64 75 6C
   65 72 
  minor version: 0
  major version: 49
  Constant pool:
Asciz	SourceFile;
Asciz	TerminationService.scala;
Asciz	scala$actors$scheduler$TerminationService$_setter_$terminate_$eq;
Asciz	(Z)V;
Asciz	scala$actors$scheduler$TerminationService$_setter_$CHECK_FREQ_$eq;
Asciz	(I)V;
Asciz	scala$actors$scheduler$TerminationService$$terminating;
Asciz	()Z;
Asciz	scala$actors$scheduler$TerminationService$$terminating_$eq;
Asciz	terminate;
Asciz	CHECK_FREQ;
Asciz	()I;
Asciz	onShutdown;
Asciz	()V;
Asciz	run;
Asciz	shutdown;
Asciz	ScalaSig;
Asciz	scala/actors/scheduler/TerminationService;
class	scala/actors/scheduler/TerminationService
Asciz	java/lang/Object;
class	java/lang/Object
Asciz	scala/actors/scheduler/TerminationMonitor;
class	scala/actors/scheduler/TerminationMonitor
Asciz	scala/ScalaObject;
class	scala/ScalaObject

{
public abstract void scala$actors$scheduler$TerminationService$_setter_$terminate_$eq(boolean);
  Signature: (Z)V

public abstract void scala$actors$scheduler$TerminationService$_setter_$CHECK_FREQ_$eq(int);
  Signature: (I)V

public abstract boolean scala$actors$scheduler$TerminationService$$terminating();
  Signature: ()Z

public abstract void scala$actors$scheduler$TerminationService$$terminating_$eq(boolean);
  Signature: (Z)V

public abstract boolean terminate();
  Signature: ()Z

public abstract int CHECK_FREQ();
  Signature: ()I

public abstract void onShutdown();
  Signature: ()V

public abstract void run();
  Signature: ()V

public abstract void shutdown();
  Signature: ()V

}

