Compiled from "NondetWordAutom.scala"
public abstract class scala.util.automata.NondetWordAutom extends java.lang.Object implements scala.ScalaObject
  SourceFile: "NondetWordAutom.scala"
  Signature: length = 0x2
   00 FFFFFFE1 
  ScalaSig: length = 0x33B
   05 00 FFFFFF81 08 06 05 01 02 FFFFFF81 00 09 02 0F 4E 6F 6E
   64 65 74 57 6F 72 64 41 75 74 6F 6D 0A 02 03 04
   01 08 61 75 74 6F 6D 61 74 61 0A 02 05 06 01 04
   75 74 69 6C 0A 01 07 01 05 73 63 61 6C 61 03 00
   15 02 0A 1E 13 03 00 0B 13 10 02 0C 11 0D 01 0D
   0A 02 0E 0F 01 04 6C 61 6E 67 0A 01 10 01 04 6A
   61 76 61 09 02 12 0D 02 06 4F 62 6A 65 63 74 10
   02 14 15 0D 01 06 09 02 16 06 02 0B 53 63 61 6C
   61 4F 62 6A 65 63 74 08 05 18 00 FFFFFF84 00 19 01 06
   3C 69 6E 69 74 3E 14 01 1A 10 03 1B 00 1C 0D 01
   02 10 02 1D 1E 0C 00 04 08 1F 00 FFFFFF84 FFFFFF80 FFFFFF80 FFFFFFC2 00
   20 02 01 54 11 02 21 24 10 02 14 22 09 02 23 06
   02 07 4E 6F 74 68 69 6E 67 10 02 14 25 09 02 26
   06 02 06 41 6E 79 52 65 66 08 07 28 00 FFFFFFC2 FFFFFF80 FFFFFF86
   00 29 01 07 6E 73 74 61 74 65 73 15 01 2A 10 02
   14 2B 09 02 2C 06 02 03 49 6E 74 08 07 2E 00 FFFFFFC2
   FFFFFF80 FFFFFF86 00 2F 01 06 6C 61 62 65 6C 73 15 01 30 10
   03 31 34 1C 0D 01 32 0A 02 33 06 01 0A 63 6F 6C
   6C 65 63 74 69 6F 6E 09 02 35 32 02 03 53 65 71
   08 07 37 00 FFFFFFC2 FFFFFF80 FFFFFF86 00 38 01 06 66 69 6E 61 6C
   73 15 01 39 10 03 14 3A 2A 09 02 3B 06 02 05 41
   72 72 61 79 08 07 3D 00 FFFFFFC2 FFFFFF80 FFFFFF86 00 3E 01 05 64
   65 6C 74 61 15 01 3F 10 03 14 3A 40 10 04 31 41
   1C 43 09 02 42 32 02 03 4D 61 70 10 02 44 47 0D
   01 45 0A 02 46 32 01 09 69 6D 6D 75 74 61 62 6C
   65 09 02 48 45 02 06 42 69 74 53 65 74 08 07 4A
   00 FFFFFFC2 FFFFFF80 FFFFFF86 00 4B 01 07 64 65 66 61 75 6C 74 15
   01 4C 10 03 14 3A 43 08 05 4E 00 FFFFFF84 02 4F 01 07
   69 73 46 69 6E 61 6C 14 02 50 53 10 02 14 51 09
   02 52 06 02 07 42 6F 6F 6C 65 61 6E 08 05 54 4D
   FFFFFFC0 00 2A 01 05 73 74 61 74 65 08 05 56 00 FFFFFF84 02
   57 01 08 66 69 6E 61 6C 54 61 67 14 02 2A 58 08
   05 54 55 FFFFFFC0 00 2A 08 05 5A 00 FFFFFF84 02 5B 01 0D 63
   6F 6E 74 61 69 6E 73 46 69 6E 61 6C 14 02 50 5C
   08 05 5D 59 FFFFFFC0 00 43 01 01 51 08 05 5F 00 FFFFFF84 02
   60 01 07 69 73 45 6D 70 74 79 15 01 50 08 05 62
   00 FFFFFF84 00 63 01 04 6E 65 78 74 14 03 43 64 66 08
   05 65 61 FFFFFFC0 00 2A 01 01 71 08 05 67 61 FFFFFFC0 00 1C
   01 01 61 08 05 62 00 FFFFFF84 00 69 14 03 43 6A 6B 08
   05 5D 68 FFFFFFC0 00 43 08 05 67 68 FFFFFFC0 00 1C 08 05 6D
   00 FFFFFF84 00 6E 01 0B 6E 65 78 74 44 65 66 61 75 6C
   74 14 02 43 6F 08 05 5D 6C FFFFFFC0 00 43 08 05 62 00
   FFFFFF84 04 71 14 03 43 72 73 08 05 5D 70 FFFFFFC0 00 43 08
   05 74 70 FFFFFFC0 00 75 01 01 66 10 04 14 76 2A 43 09
   02 77 06 02 09 46 75 6E 63 74 69 6F 6E 31 08 05
   79 00 FFFFFF84 04 7A 01 0B 66 69 6E 61 6C 53 74 61 74
   65 73 15 01 7B 10 03 44 7C 2A 09 02 7D 45 02 0A
   49 6E 64 65 78 65 64 53 65 71 08 06 7F 00 FFFFFF84 20
   FFFFFF81 00 01 08 74 6F 53 74 72 69 6E 67 14 02 FFFFFF81 01
   10 04 FFFFFF81 02 FFFFFF81 05 0E 03 14 FFFFFF81 03 09 03 FFFFFF81 04 06
   01 06 50 72 65 64 65 66 09 04 FFFFFF81 06 FFFFFF81 07 02 06
   53 74 72 69 6E 67 0A 03 FFFFFF81 04 06 
  InnerClass: 
   public final #228= #76 of #21; //$anonfun$2=class scala/util/automata/NondetWordAutom$$anonfun$2 of class scala/util/automata/NondetWordAutom
   public final #229= #27 of #21; //$anonfun$1=class scala/util/automata/NondetWordAutom$$anonfun$1 of class scala/util/automata/NondetWordAutom
   public final #230= #179 of #21; //$anonfun$next$1=class scala/util/automata/NondetWordAutom$$anonfun$next$1 of class scala/util/automata/NondetWordAutom
   public final #231= #166 of #21; //$anonfun$next$2=class scala/util/automata/NondetWordAutom$$anonfun$next$2 of class scala/util/automata/NondetWordAutom
   public final #232= #137 of #21; //$anonfun$next$3=class scala/util/automata/NondetWordAutom$$anonfun$next$3 of class scala/util/automata/NondetWordAutom
   public final #233= #194 of #21; //$anonfun$isEmpty$1=class scala/util/automata/NondetWordAutom$$anonfun$isEmpty$1 of class scala/util/automata/NondetWordAutom
   public final #234= #110 of #21; //$anonfun$finalStates$1=class scala/util/automata/NondetWordAutom$$anonfun$finalStates$1 of class scala/util/automata/NondetWordAutom
   public final #235= #205 of #21; //$anonfun$containsFinal$1=class scala/util/automata/NondetWordAutom$$anonfun$containsFinal$1 of class scala/util/automata/NondetWordAutom
  minor version: 0
  major version: 49
  Constant pool:
const #1 = Asciz	SourceFile;
const #2 = Asciz	NondetWordAutom.scala;
const #3 = Asciz	<init>;
const #4 = Asciz	()V;
const #5 = Asciz	Code;
const #6 = Asciz	LineNumberTable;
const #7 = Asciz	java/lang/Object;
const #8 = class	#7;	//  java/lang/Object
const #9 = NameAndType	#3:#4;//  "<init>":()V
const #10 = Method	#8.#9;	//  java/lang/Object."<init>":()V
const #11 = Asciz	Signature;
const #12 = Asciz	toString;
const #13 = Asciz	()Ljava/lang/String;;
const #14 = Asciz	scala/collection/Map$;
const #15 = class	#14;	//  scala/collection/Map$
const #16 = Asciz	MODULE$;
const #17 = Asciz	Lscala/collection/Map$;;
const #18 = NameAndType	#16:#17;//  MODULE$:Lscala/collection/Map$;
const #19 = Field	#15.#18;	//  scala/collection/Map$.MODULE$:Lscala/collection/Map$;
const #20 = Asciz	scala/util/automata/NondetWordAutom;
const #21 = class	#20;	//  scala/util/automata/NondetWordAutom
const #22 = Asciz	finalStates;
const #23 = Asciz	()Lscala/collection/immutable/IndexedSeq;;
const #24 = NameAndType	#22:#23;//  finalStates:()Lscala/collection/immutable/IndexedSeq;
const #25 = Method	#21.#24;	//  scala/util/automata/NondetWordAutom.finalStates:()Lscala/collection/immutable/IndexedSeq;
const #26 = Asciz	scala/util/automata/NondetWordAutom$$anonfun$1;
const #27 = class	#26;	//  scala/util/automata/NondetWordAutom$$anonfun$1
const #28 = Asciz	(Lscala/util/automata/NondetWordAutom;)V;
const #29 = NameAndType	#3:#28;//  "<init>":(Lscala/util/automata/NondetWordAutom;)V
const #30 = Method	#27.#29;	//  scala/util/automata/NondetWordAutom$$anonfun$1."<init>":(Lscala/util/automata/NondetWordAutom;)V
const #31 = Asciz	scala/collection/immutable/IndexedSeq$;
const #32 = class	#31;	//  scala/collection/immutable/IndexedSeq$
const #33 = Asciz	Lscala/collection/immutable/IndexedSeq$;;
const #34 = NameAndType	#16:#33;//  MODULE$:Lscala/collection/immutable/IndexedSeq$;
const #35 = Field	#32.#34;	//  scala/collection/immutable/IndexedSeq$.MODULE$:Lscala/collection/immutable/IndexedSeq$;
const #36 = Asciz	canBuildFrom;
const #37 = Asciz	()Lscala/collection/generic/CanBuildFrom;;
const #38 = NameAndType	#36:#37;//  canBuildFrom:()Lscala/collection/generic/CanBuildFrom;
const #39 = Method	#32.#38;	//  scala/collection/immutable/IndexedSeq$.canBuildFrom:()Lscala/collection/generic/CanBuildFrom;
const #40 = Asciz	scala/collection/TraversableLike;
const #41 = class	#40;	//  scala/collection/TraversableLike
const #42 = Asciz	map;
const #43 = Asciz	(Lscala/Function1;Lscala/collection/generic/CanBuildFrom;)Ljava/lang/Object;;
const #44 = NameAndType	#42:#43;//  map:(Lscala/Function1;Lscala/collection/generic/CanBuildFrom;)Ljava/lang/Object;
const #45 = InterfaceMethod	#41.#44;	//  scala/collection/TraversableLike.map:(Lscala/Function1;Lscala/collection/generic/CanBuildFrom;)Ljava/lang/Object;
const #46 = Asciz	scala/collection/Seq;
const #47 = class	#46;	//  scala/collection/Seq
const #48 = Asciz	apply;
const #49 = Asciz	(Lscala/collection/Seq;)Lscala/collection/Map;;
const #50 = NameAndType	#48:#49;//  apply:(Lscala/collection/Seq;)Lscala/collection/Map;
const #51 = Method	#15.#50;	//  scala/collection/Map$.apply:(Lscala/collection/Seq;)Lscala/collection/Map;
const #52 = Asciz	scala/collection/MapLike;
const #53 = class	#52;	//  scala/collection/MapLike
const #54 = NameAndType	#12:#13;//  toString:()Ljava/lang/String;
const #55 = InterfaceMethod	#53.#54;	//  scala/collection/MapLike.toString:()Ljava/lang/String;
const #56 = Asciz	scala/Predef$;
const #57 = class	#56;	//  scala/Predef$
const #58 = Asciz	Lscala/Predef$;;
const #59 = NameAndType	#16:#58;//  MODULE$:Lscala/Predef$;
const #60 = Field	#57.#59;	//  scala/Predef$.MODULE$:Lscala/Predef$;
const #61 = Asciz	intWrapper;
const #62 = Asciz	(I)Lscala/runtime/RichInt;;
const #63 = NameAndType	#61:#62;//  intWrapper:(I)Lscala/runtime/RichInt;
const #64 = Method	#57.#63;	//  scala/Predef$.intWrapper:(I)Lscala/runtime/RichInt;
const #65 = Asciz	nstates;
const #66 = Asciz	()I;
const #67 = NameAndType	#65:#66;//  nstates:()I
const #68 = Method	#21.#67;	//  scala/util/automata/NondetWordAutom.nstates:()I
const #69 = Asciz	scala/runtime/RichInt;
const #70 = class	#69;	//  scala/runtime/RichInt
const #71 = Asciz	until;
const #72 = Asciz	(I)Lscala/collection/immutable/Range;;
const #73 = NameAndType	#71:#72;//  until:(I)Lscala/collection/immutable/Range;
const #74 = Method	#70.#73;	//  scala/runtime/RichInt.until:(I)Lscala/collection/immutable/Range;
const #75 = Asciz	scala/util/automata/NondetWordAutom$$anonfun$2;
const #76 = class	#75;	//  scala/util/automata/NondetWordAutom$$anonfun$2
const #77 = Method	#76.#29;	//  scala/util/automata/NondetWordAutom$$anonfun$2."<init>":(Lscala/util/automata/NondetWordAutom;)V
const #78 = Asciz	mkString;
const #79 = NameAndType	#78:#13;//  mkString:()Ljava/lang/String;
const #80 = InterfaceMethod	#41.#79;	//  scala/collection/TraversableLike.mkString:()Ljava/lang/String;
const #81 = Asciz	[NondetWordAutom  nstates=%d  finals=%s  delta=\n%s;
const #82 = String	#81;	//  [NondetWordAutom  nstates=%d  finals=%s  delta=\n%s
const #83 = Asciz	augmentString;
const #84 = Asciz	(Ljava/lang/String;)Lscala/collection/immutable/StringOps;;
const #85 = NameAndType	#83:#84;//  augmentString:(Ljava/lang/String;)Lscala/collection/immutable/StringOps;
const #86 = Method	#57.#85;	//  scala/Predef$.augmentString:(Ljava/lang/String;)Lscala/collection/immutable/StringOps;
const #87 = Asciz	scala/runtime/BoxesRunTime;
const #88 = class	#87;	//  scala/runtime/BoxesRunTime
const #89 = Asciz	boxToInteger;
const #90 = Asciz	(I)Ljava/lang/Integer;;
const #91 = NameAndType	#89:#90;//  boxToInteger:(I)Ljava/lang/Integer;
const #92 = Method	#88.#91;	//  scala/runtime/BoxesRunTime.boxToInteger:(I)Ljava/lang/Integer;
const #93 = Asciz	genericWrapArray;
const #94 = Asciz	(Ljava/lang/Object;)Lscala/collection/mutable/WrappedArray;;
const #95 = NameAndType	#93:#94;//  genericWrapArray:(Ljava/lang/Object;)Lscala/collection/mutable/WrappedArray;
const #96 = Method	#57.#95;	//  scala/Predef$.genericWrapArray:(Ljava/lang/Object;)Lscala/collection/mutable/WrappedArray;
const #97 = Asciz	scala/collection/immutable/StringLike;
const #98 = class	#97;	//  scala/collection/immutable/StringLike
const #99 = Asciz	format;
const #100 = Asciz	(Lscala/collection/Seq;)Ljava/lang/String;;
const #101 = NameAndType	#99:#100;//  format:(Lscala/collection/Seq;)Ljava/lang/String;
const #102 = InterfaceMethod	#98.#101;	//  scala/collection/immutable/StringLike.format:(Lscala/collection/Seq;)Ljava/lang/String;
const #103 = Asciz	this;
const #104 = Asciz	Lscala/util/automata/NondetWordAutom;;
const #105 = Asciz	finalString;
const #106 = Asciz	Ljava/lang/String;;
const #107 = Asciz	deltaString;
const #108 = Asciz	LocalVariableTable;
const #109 = Asciz	scala/util/automata/NondetWordAutom$$anonfun$finalStates$1;
const #110 = class	#109;	//  scala/util/automata/NondetWordAutom$$anonfun$finalStates$1
const #111 = Method	#110.#29;	//  scala/util/automata/NondetWordAutom$$anonfun$finalStates$1."<init>":(Lscala/util/automata/NondetWordAutom;)V
const #112 = Asciz	filter;
const #113 = Asciz	(Lscala/Function1;)Ljava/lang/Object;;
const #114 = NameAndType	#112:#113;//  filter:(Lscala/Function1;)Ljava/lang/Object;
const #115 = InterfaceMethod	#41.#114;	//  scala/collection/TraversableLike.filter:(Lscala/Function1;)Ljava/lang/Object;
const #116 = Asciz	scala/collection/immutable/IndexedSeq;
const #117 = class	#116;	//  scala/collection/immutable/IndexedSeq
const #118 = Asciz	()Lscala/collection/immutable/IndexedSeq<Ljava/lang/Integer;>;;
const #119 = Asciz	next;
const #120 = Asciz	(Lscala/collection/immutable/BitSet;Lscala/Function1;)Lscala/collection/immutable/BitSet;;
const #121 = Asciz	scala/collection/immutable/Set$;
const #122 = class	#121;	//  scala/collection/immutable/Set$
const #123 = Asciz	Lscala/collection/immutable/Set$;;
const #124 = NameAndType	#16:#123;//  MODULE$:Lscala/collection/immutable/Set$;
const #125 = Field	#122.#124;	//  scala/collection/immutable/Set$.MODULE$:Lscala/collection/immutable/Set$;
const #126 = Method	#122.#38;	//  scala/collection/immutable/Set$.canBuildFrom:()Lscala/collection/generic/CanBuildFrom;
const #127 = Asciz	scala/collection/immutable/BitSet$;
const #128 = class	#127;	//  scala/collection/immutable/BitSet$
const #129 = Asciz	Lscala/collection/immutable/BitSet$;;
const #130 = NameAndType	#16:#129;//  MODULE$:Lscala/collection/immutable/BitSet$;
const #131 = Field	#128.#130;	//  scala/collection/immutable/BitSet$.MODULE$:Lscala/collection/immutable/BitSet$;
const #132 = Asciz	empty;
const #133 = Asciz	()Lscala/collection/immutable/BitSet;;
const #134 = NameAndType	#132:#133;//  empty:()Lscala/collection/immutable/BitSet;
const #135 = Method	#128.#134;	//  scala/collection/immutable/BitSet$.empty:()Lscala/collection/immutable/BitSet;
const #136 = Asciz	scala/util/automata/NondetWordAutom$$anonfun$next$3;
const #137 = class	#136;	//  scala/util/automata/NondetWordAutom$$anonfun$next$3
const #138 = Method	#137.#29;	//  scala/util/automata/NondetWordAutom$$anonfun$next$3."<init>":(Lscala/util/automata/NondetWordAutom;)V
const #139 = Asciz	foldLeft;
const #140 = Asciz	(Ljava/lang/Object;Lscala/Function2;)Ljava/lang/Object;;
const #141 = NameAndType	#139:#140;//  foldLeft:(Ljava/lang/Object;Lscala/Function2;)Ljava/lang/Object;
const #142 = InterfaceMethod	#41.#141;	//  scala/collection/TraversableLike.foldLeft:(Ljava/lang/Object;Lscala/Function2;)Ljava/lang/Object;
const #143 = Asciz	scala/collection/immutable/BitSet;
const #144 = class	#143;	//  scala/collection/immutable/BitSet
const #145 = Asciz	Q;
const #146 = Asciz	Lscala/collection/immutable/BitSet;;
const #147 = Asciz	f;
const #148 = Asciz	Lscala/Function1;;
const #149 = Asciz	(Lscala/collection/immutable/BitSet;Lscala/Function1<Ljava/lang/Integer;Lscala/collection/immutable/BitSet;>;)Lscala/collection/immutable/BitSet;;
const #150 = Asciz	nextDefault;
const #151 = Asciz	(Lscala/collection/immutable/BitSet;)Lscala/collection/immutable/BitSet;;
const #152 = Asciz	default;
const #153 = Asciz	()[Lscala/collection/immutable/BitSet;;
const #154 = NameAndType	#152:#153;//  default:()[Lscala/collection/immutable/BitSet;
const #155 = Method	#21.#154;	//  scala/util/automata/NondetWordAutom.default:()[Lscala/collection/immutable/BitSet;
const #156 = Asciz	[Ljava/lang/Object;;
const #157 = class	#156;	//  "[Ljava/lang/Object;"
const #158 = Asciz	wrapRefArray;
const #159 = Asciz	([Ljava/lang/Object;)Lscala/collection/mutable/WrappedArray;;
const #160 = NameAndType	#158:#159;//  wrapRefArray:([Ljava/lang/Object;)Lscala/collection/mutable/WrappedArray;
const #161 = Method	#57.#160;	//  scala/Predef$.wrapRefArray:([Ljava/lang/Object;)Lscala/collection/mutable/WrappedArray;
const #162 = NameAndType	#119:#120;//  next:(Lscala/collection/immutable/BitSet;Lscala/Function1;)Lscala/collection/immutable/BitSet;
const #163 = Method	#21.#162;	//  scala/util/automata/NondetWordAutom.next:(Lscala/collection/immutable/BitSet;Lscala/Function1;)Lscala/collection/immutable/BitSet;
const #164 = Asciz	(Lscala/collection/immutable/BitSet;Ljava/lang/Object;)Lscala/collection/immutable/BitSet;;
const #165 = Asciz	scala/util/automata/NondetWordAutom$$anonfun$next$2;
const #166 = class	#165;	//  scala/util/automata/NondetWordAutom$$anonfun$next$2
const #167 = Asciz	(Lscala/util/automata/NondetWordAutom;Ljava/lang/Object;)V;
const #168 = NameAndType	#3:#167;//  "<init>":(Lscala/util/automata/NondetWordAutom;Ljava/lang/Object;)V
const #169 = Method	#166.#168;	//  scala/util/automata/NondetWordAutom$$anonfun$next$2."<init>":(Lscala/util/automata/NondetWordAutom;Ljava/lang/Object;)V
const #170 = Asciz	a$1;
const #171 = Asciz	Ljava/lang/Object;;
const #172 = Asciz	(Lscala/collection/immutable/BitSet;TT;)Lscala/collection/immutable/BitSet;;
const #173 = Asciz	(ILjava/lang/Object;)Lscala/collection/immutable/BitSet;;
const #174 = Asciz	delta;
const #175 = Asciz	()[Lscala/collection/Map;;
const #176 = NameAndType	#174:#175;//  delta:()[Lscala/collection/Map;
const #177 = Method	#21.#176;	//  scala/util/automata/NondetWordAutom.delta:()[Lscala/collection/Map;
const #178 = Asciz	scala/util/automata/NondetWordAutom$$anonfun$next$1;
const #179 = class	#178;	//  scala/util/automata/NondetWordAutom$$anonfun$next$1
const #180 = Asciz	(Lscala/util/automata/NondetWordAutom;I)V;
const #181 = NameAndType	#3:#180;//  "<init>":(Lscala/util/automata/NondetWordAutom;I)V
const #182 = Method	#179.#181;	//  scala/util/automata/NondetWordAutom$$anonfun$next$1."<init>":(Lscala/util/automata/NondetWordAutom;I)V
const #183 = Asciz	getOrElse;
const #184 = Asciz	(Ljava/lang/Object;Lscala/Function0;)Ljava/lang/Object;;
const #185 = NameAndType	#183:#184;//  getOrElse:(Ljava/lang/Object;Lscala/Function0;)Ljava/lang/Object;
const #186 = InterfaceMethod	#53.#185;	//  scala/collection/MapLike.getOrElse:(Ljava/lang/Object;Lscala/Function0;)Ljava/lang/Object;
const #187 = Asciz	q$1;
const #188 = Asciz	I;
const #189 = Asciz	a;
const #190 = Asciz	(ITT;)Lscala/collection/immutable/BitSet;;
const #191 = Asciz	isEmpty;
const #192 = Asciz	()Z;
const #193 = Asciz	scala/util/automata/NondetWordAutom$$anonfun$isEmpty$1;
const #194 = class	#193;	//  scala/util/automata/NondetWordAutom$$anonfun$isEmpty$1
const #195 = Method	#194.#29;	//  scala/util/automata/NondetWordAutom$$anonfun$isEmpty$1."<init>":(Lscala/util/automata/NondetWordAutom;)V
const #196 = Asciz	scala/collection/IndexedSeqLike;
const #197 = class	#196;	//  scala/collection/IndexedSeqLike
const #198 = Asciz	forall;
const #199 = Asciz	(Lscala/Function1;)Z;
const #200 = NameAndType	#198:#199;//  forall:(Lscala/Function1;)Z
const #201 = InterfaceMethod	#197.#200;	//  scala/collection/IndexedSeqLike.forall:(Lscala/Function1;)Z
const #202 = Asciz	containsFinal;
const #203 = Asciz	(Lscala/collection/immutable/BitSet;)Z;
const #204 = Asciz	scala/util/automata/NondetWordAutom$$anonfun$containsFinal$1;
const #205 = class	#204;	//  scala/util/automata/NondetWordAutom$$anonfun$containsFinal$1
const #206 = Method	#205.#29;	//  scala/util/automata/NondetWordAutom$$anonfun$containsFinal$1."<init>":(Lscala/util/automata/NondetWordAutom;)V
const #207 = Asciz	scala/collection/IterableLike;
const #208 = class	#207;	//  scala/collection/IterableLike
const #209 = Asciz	exists;
const #210 = NameAndType	#209:#199;//  exists:(Lscala/Function1;)Z
const #211 = InterfaceMethod	#208.#210;	//  scala/collection/IterableLike.exists:(Lscala/Function1;)Z
const #212 = Asciz	finalTag;
const #213 = Asciz	(I)I;
const #214 = Asciz	finals;
const #215 = Asciz	()[I;
const #216 = NameAndType	#214:#215;//  finals:()[I
const #217 = Method	#21.#216;	//  scala/util/automata/NondetWordAutom.finals:()[I
const #218 = Asciz	state;
const #219 = Asciz	isFinal;
const #220 = Asciz	(I)Z;
const #221 = Asciz	()[Lscala/collection/Map<TT;Lscala/collection/immutable/BitSet;>;;
const #222 = Asciz	labels;
const #223 = Asciz	()Lscala/collection/Seq;;
const #224 = Asciz	()Lscala/collection/Seq<TT;>;;
const #225 = Asciz	<T:Ljava/lang/Object;>Ljava/lang/Object;Lscala/ScalaObject;;
const #226 = Asciz	ScalaSig;
const #227 = Asciz	InnerClasses;
const #228 = Asciz	$anonfun$2;
const #229 = Asciz	$anonfun$1;
const #230 = Asciz	$anonfun$next$1;
const #231 = Asciz	$anonfun$next$2;
const #232 = Asciz	$anonfun$next$3;
const #233 = Asciz	$anonfun$isEmpty$1;
const #234 = Asciz	$anonfun$finalStates$1;
const #235 = Asciz	$anonfun$containsFinal$1;
const #236 = Asciz	scala/ScalaObject;
const #237 = class	#236;	//  scala/ScalaObject

{
public scala.util.automata.NondetWordAutom();
  Code:
   Stack=1, Locals=1, Args_size=1
   0:	aload_0
   1:	invokespecial	#10; //Method java/lang/Object."<init>":()V
   4:	return
  LineNumberTable: 
   line 25: 0

  Signature: length = 0x2
   00 04 

public java.lang.String toString();
  Code:
   Stack=6, Locals=4, Args_size=1
   0:	getstatic	#19; //Field scala/collection/Map$.MODULE$:Lscala/collection/Map$;
   3:	aload_0
   4:	invokespecial	#25; //Method finalStates:()Lscala/collection/immutable/IndexedSeq;
   7:	new	#27; //class scala/util/automata/NondetWordAutom$$anonfun$1
   10:	dup
   11:	aload_0
   12:	invokespecial	#30; //Method scala/util/automata/NondetWordAutom$$anonfun$1."<init>":(Lscala/util/automata/NondetWordAutom;)V
   15:	getstatic	#35; //Field scala/collection/immutable/IndexedSeq$.MODULE$:Lscala/collection/immutable/IndexedSeq$;
   18:	invokevirtual	#39; //Method scala/collection/immutable/IndexedSeq$.canBuildFrom:()Lscala/collection/generic/CanBuildFrom;
   21:	invokeinterface	#45,  3; //InterfaceMethod scala/collection/TraversableLike.map:(Lscala/Function1;Lscala/collection/generic/CanBuildFrom;)Ljava/lang/Object;
   26:	checkcast	#47; //class scala/collection/Seq
   29:	invokevirtual	#51; //Method scala/collection/Map$.apply:(Lscala/collection/Seq;)Lscala/collection/Map;
   32:	invokeinterface	#55,  1; //InterfaceMethod scala/collection/MapLike.toString:()Ljava/lang/String;
   37:	astore_1
   38:	getstatic	#60; //Field scala/Predef$.MODULE$:Lscala/Predef$;
   41:	iconst_0
   42:	invokevirtual	#64; //Method scala/Predef$.intWrapper:(I)Lscala/runtime/RichInt;
   45:	aload_0
   46:	invokevirtual	#68; //Method nstates:()I
   49:	invokevirtual	#74; //Method scala/runtime/RichInt.until:(I)Lscala/collection/immutable/Range;
   52:	new	#76; //class scala/util/automata/NondetWordAutom$$anonfun$2
   55:	dup
   56:	aload_0
   57:	invokespecial	#77; //Method scala/util/automata/NondetWordAutom$$anonfun$2."<init>":(Lscala/util/automata/NondetWordAutom;)V
   60:	getstatic	#35; //Field scala/collection/immutable/IndexedSeq$.MODULE$:Lscala/collection/immutable/IndexedSeq$;
   63:	invokevirtual	#39; //Method scala/collection/immutable/IndexedSeq$.canBuildFrom:()Lscala/collection/generic/CanBuildFrom;
   66:	invokeinterface	#45,  3; //InterfaceMethod scala/collection/TraversableLike.map:(Lscala/Function1;Lscala/collection/generic/CanBuildFrom;)Ljava/lang/Object;
   71:	checkcast	#41; //class scala/collection/TraversableLike
   74:	invokeinterface	#80,  1; //InterfaceMethod scala/collection/TraversableLike.mkString:()Ljava/lang/String;
   79:	astore_2
   80:	getstatic	#60; //Field scala/Predef$.MODULE$:Lscala/Predef$;
   83:	ldc	#82; //String [NondetWordAutom  nstates=%d  finals=%s  delta=\n%s
   85:	invokevirtual	#86; //Method scala/Predef$.augmentString:(Ljava/lang/String;)Lscala/collection/immutable/StringOps;
   88:	getstatic	#60; //Field scala/Predef$.MODULE$:Lscala/Predef$;
   91:	iconst_3
   92:	anewarray	#8; //class java/lang/Object
   95:	dup
   96:	iconst_0
   97:	aload_0
   98:	invokevirtual	#68; //Method nstates:()I
   101:	istore_3
   102:	iload_3
   103:	invokestatic	#92; //Method scala/runtime/BoxesRunTime.boxToInteger:(I)Ljava/lang/Integer;
   106:	aastore
   107:	dup
   108:	iconst_1
   109:	aload_1
   110:	aastore
   111:	dup
   112:	iconst_2
   113:	aload_2
   114:	aastore
   115:	invokevirtual	#96; //Method scala/Predef$.genericWrapArray:(Ljava/lang/Object;)Lscala/collection/mutable/WrappedArray;
   118:	invokeinterface	#102,  2; //InterfaceMethod scala/collection/immutable/StringLike.format:(Lscala/collection/Seq;)Ljava/lang/String;
   123:	areturn
  LineNumberTable: 
   line 58: 0
   line 59: 38
   line 60: 52
   line 59: 79
   line 62: 80

  LocalVariableTable: 
   Start  Length  Slot  Name   Signature
   0      124      0    this       Lscala/util/automata/NondetWordAutom;
   38      85      1    finalString       Ljava/lang/String;
   80      43      2    deltaString       Ljava/lang/String;


public scala.collection.immutable.BitSet nextDefault(scala.collection.immutable.BitSet);
  Code:
   Stack=4, Locals=2, Args_size=2
   0:	aload_0
   1:	aload_1
   2:	getstatic	#60; //Field scala/Predef$.MODULE$:Lscala/Predef$;
   5:	aload_0
   6:	invokevirtual	#155; //Method default:()[Lscala/collection/immutable/BitSet;
   9:	checkcast	#157; //class "[Ljava/lang/Object;"
   12:	invokevirtual	#161; //Method scala/Predef$.wrapRefArray:([Ljava/lang/Object;)Lscala/collection/mutable/WrappedArray;
   15:	invokespecial	#163; //Method next:(Lscala/collection/immutable/BitSet;Lscala/Function1;)Lscala/collection/immutable/BitSet;
   18:	areturn
  LineNumberTable: 
   line 50: 0

  LocalVariableTable: 
   Start  Length  Slot  Name   Signature
   0      19      0    this       Lscala/util/automata/NondetWordAutom;
   0      19      1    Q       Lscala/collection/immutable/BitSet;


public scala.collection.immutable.BitSet next(scala.collection.immutable.BitSet, java.lang.Object);
  Code:
   Stack=6, Locals=3, Args_size=3
   0:	aload_0
   1:	aload_1
   2:	new	#166; //class scala/util/automata/NondetWordAutom$$anonfun$next$2
   5:	dup
   6:	aload_0
   7:	aload_2
   8:	invokespecial	#169; //Method scala/util/automata/NondetWordAutom$$anonfun$next$2."<init>":(Lscala/util/automata/NondetWordAutom;Ljava/lang/Object;)V
   11:	invokespecial	#163; //Method next:(Lscala/collection/immutable/BitSet;Lscala/Function1;)Lscala/collection/immutable/BitSet;
   14:	areturn
  LineNumberTable: 
   line 49: 0

  LocalVariableTable: 
   Start  Length  Slot  Name   Signature
   0      15      0    this       Lscala/util/automata/NondetWordAutom;
   0      15      1    Q       Lscala/collection/immutable/BitSet;
   0      15      2    a$1       Ljava/lang/Object;

  Signature: length = 0x2
   00 FFFFFFAC 

public scala.collection.immutable.BitSet next(int, java.lang.Object);
  Code:
   Stack=6, Locals=3, Args_size=3
   0:	aload_0
   1:	invokevirtual	#177; //Method delta:()[Lscala/collection/Map;
   4:	iload_1
   5:	aaload
   6:	aload_2
   7:	new	#179; //class scala/util/automata/NondetWordAutom$$anonfun$next$1
   10:	dup
   11:	aload_0
   12:	iload_1
   13:	invokespecial	#182; //Method scala/util/automata/NondetWordAutom$$anonfun$next$1."<init>":(Lscala/util/automata/NondetWordAutom;I)V
   16:	invokeinterface	#186,  3; //InterfaceMethod scala/collection/MapLike.getOrElse:(Ljava/lang/Object;Lscala/Function0;)Ljava/lang/Object;
   21:	checkcast	#144; //class scala/collection/immutable/BitSet
   24:	areturn
  LineNumberTable: 
   line 46: 0

  LocalVariableTable: 
   Start  Length  Slot  Name   Signature
   0      25      0    this       Lscala/util/automata/NondetWordAutom;
   0      25      1    q$1       I
   0      25      2    a       Ljava/lang/Object;

  Signature: length = 0x2
   00 FFFFFFBE 

public final boolean isEmpty();
  Code:
   Stack=4, Locals=1, Args_size=1
   0:	getstatic	#60; //Field scala/Predef$.MODULE$:Lscala/Predef$;
   3:	iconst_0
   4:	invokevirtual	#64; //Method scala/Predef$.intWrapper:(I)Lscala/runtime/RichInt;
   7:	aload_0
   8:	invokevirtual	#68; //Method nstates:()I
   11:	invokevirtual	#74; //Method scala/runtime/RichInt.until:(I)Lscala/collection/immutable/Range;
   14:	new	#194; //class scala/util/automata/NondetWordAutom$$anonfun$isEmpty$1
   17:	dup
   18:	aload_0
   19:	invokespecial	#195; //Method scala/util/automata/NondetWordAutom$$anonfun$isEmpty$1."<init>":(Lscala/util/automata/NondetWordAutom;)V
   22:	invokeinterface	#201,  2; //InterfaceMethod scala/collection/IndexedSeqLike.forall:(Lscala/Function1;)Z
   27:	ireturn
  LineNumberTable: 
   line 43: 0


public final boolean containsFinal(scala.collection.immutable.BitSet);
  Code:
   Stack=4, Locals=2, Args_size=2
   0:	aload_1
   1:	new	#205; //class scala/util/automata/NondetWordAutom$$anonfun$containsFinal$1
   4:	dup
   5:	aload_0
   6:	invokespecial	#206; //Method scala/util/automata/NondetWordAutom$$anonfun$containsFinal$1."<init>":(Lscala/util/automata/NondetWordAutom;)V
   9:	invokeinterface	#211,  2; //InterfaceMethod scala/collection/IterableLike.exists:(Lscala/Function1;)Z
   14:	ireturn
  LineNumberTable: 
   line 40: 0

  LocalVariableTable: 
   Start  Length  Slot  Name   Signature
   0      15      0    this       Lscala/util/automata/NondetWordAutom;
   0      15      1    Q       Lscala/collection/immutable/BitSet;


public final int finalTag(int);
  Code:
   Stack=2, Locals=2, Args_size=2
   0:	aload_0
   1:	invokevirtual	#217; //Method finals:()[I
   4:	iload_1
   5:	iaload
   6:	ireturn
  LineNumberTable: 
   line 37: 0

  LocalVariableTable: 
   Start  Length  Slot  Name   Signature
   0      7      0    this       Lscala/util/automata/NondetWordAutom;
   0      7      1    state       I


public final boolean isFinal(int);
  Code:
   Stack=2, Locals=2, Args_size=2
   0:	aload_0
   1:	invokevirtual	#217; //Method finals:()[I
   4:	iload_1
   5:	iaload
   6:	iconst_0
   7:	if_icmple	14
   10:	iconst_1
   11:	goto	15
   14:	iconst_0
   15:	ireturn
  LineNumberTable: 
   line 34: 0

  LocalVariableTable: 
   Start  Length  Slot  Name   Signature
   0      16      0    this       Lscala/util/automata/NondetWordAutom;
   0      16      1    state       I


public abstract scala.collection.immutable.BitSet[] default();

public abstract scala.collection.Map[] delta();
  Signature: length = 0x2
   00 FFFFFFDD 

public abstract int[] finals();

public abstract scala.collection.Seq labels();
  Signature: length = 0x2
   00 FFFFFFE0 

public abstract int nstates();

}

