Compiled from "NondetWordAutom.scala"
public abstract class scala.util.automata.NondetWordAutom extends java.lang.Object implements scala.ScalaObject
  SourceFile: "NondetWordAutom.scala"
  Signature: length = 0x2
   00 FFFFFFE1 
  ScalaSig: length = 0x33B
   05 00 FFFFFF81 08 06 05 01 02 FFFFFF81 00 09 02 0F 4E 6F 6E
   64 65 74 57 6F 72 64 41 75 74 6F 6D 0A 02 03 04
   01 08 61 75 74 6F 6D 61 74 61 0A 02 05 06 01 04
   75 74 69 6C 0A 01 07 01 05 73 63 61 6C 61 03 00
   15 02 0A 1E 13 03 00 0B 13 10 02 0C 11 0D 01 0D
   0A 02 0E 0F 01 04 6C 61 6E 67 0A 01 10 01 04 6A
   61 76 61 09 02 12 0D 02 06 4F 62 6A 65 63 74 10
   02 14 15 0D 01 06 09 02 16 06 02 0B 53 63 61 6C
   61 4F 62 6A 65 63 74 08 05 18 00 FFFFFF84 00 19 01 06
   3C 69 6E 69 74 3E 14 01 1A 10 03 1B 00 1C 0D 01
   02 10 02 1D 1E 0C 00 04 08 1F 00 FFFFFF84 FFFFFF80 FFFFFF80 FFFFFFC2 00
   20 02 01 54 11 02 21 24 10 02 14 22 09 02 23 06
   02 07 4E 6F 74 68 69 6E 67 10 02 14 25 09 02 26
   06 02 06 41 6E 79 52 65 66 08 07 28 00 FFFFFFC2 FFFFFF80 FFFFFF86
   00 29 01 07 6E 73 74 61 74 65 73 15 01 2A 10 02
   14 2B 09 02 2C 06 02 03 49 6E 74 08 07 2E 00 FFFFFFC2
   FFFFFF80 FFFFFF86 00 2F 01 06 6C 61 62 65 6C 73 15 01 30 10
   03 31 34 1C 0D 01 32 0A 02 33 06 01 0A 63 6F 6C
   6C 65 63 74 69 6F 6E 09 02 35 32 02 03 53 65 71
   08 07 37 00 FFFFFFC2 FFFFFF80 FFFFFF86 00 38 01 06 66 69 6E 61 6C
   73 15 01 39 10 03 14 3A 2A 09 02 3B 06 02 05 41
   72 72 61 79 08 07 3D 00 FFFFFFC2 FFFFFF80 FFFFFF86 00 3E 01 05 64
   65 6C 74 61 15 01 3F 10 03 14 3A 40 10 04 31 41
   1C 43 09 02 42 32 02 03 4D 61 70 10 02 44 47 0D
   01 45 0A 02 46 32 01 09 69 6D 6D 75 74 61 62 6C
   65 09 02 48 45 02 06 42 69 74 53 65 74 08 07 4A
   00 FFFFFFC2 FFFFFF80 FFFFFF86 00 4B 01 07 64 65 66 61 75 6C 74 15
   01 4C 10 03 14 3A 43 08 05 4E 00 FFFFFF84 02 4F 01 07
   69 73 46 69 6E 61 6C 14 02 50 53 10 02 14 51 09
   02 52 06 02 07 42 6F 6F 6C 65 61 6E 08 05 54 4D
   FFFFFFC0 00 2A 01 05 73 74 61 74 65 08 05 56 00 FFFFFF84 02
   57 01 08 66 69 6E 61 6C 54 61 67 14 02 2A 58 08
   05 54 55 FFFFFFC0 00 2A 08 05 5A 00 FFFFFF84 02 5B 01 0D 63
   6F 6E 74 61 69 6E 73 46 69 6E 61 6C 14 02 50 5C
   08 05 5D 59 FFFFFFC0 00 43 01 01 51 08 05 5F 00 FFFFFF84 02
   60 01 07 69 73 45 6D 70 74 79 15 01 50 08 05 62
   00 FFFFFF84 00 63 01 04 6E 65 78 74 14 03 43 64 66 08
   05 65 61 FFFFFFC0 00 2A 01 01 71 08 05 67 61 FFFFFFC0 00 1C
   01 01 61 08 05 62 00 FFFFFF84 00 69 14 03 43 6A 6B 08
   05 5D 68 FFFFFFC0 00 43 08 05 67 68 FFFFFFC0 00 1C 08 05 6D
   00 FFFFFF84 00 6E 01 0B 6E 65 78 74 44 65 66 61 75 6C
   74 14 02 43 6F 08 05 5D 6C FFFFFFC0 00 43 08 05 62 00
   FFFFFF84 04 71 14 03 43 72 73 08 05 5D 70 FFFFFFC0 00 43 08
   05 74 70 FFFFFFC0 00 75 01 01 66 10 04 14 76 2A 43 09
   02 77 06 02 09 46 75 6E 63 74 69 6F 6E 31 08 05
   79 00 FFFFFF84 04 7A 01 0B 66 69 6E 61 6C 53 74 61 74
   65 73 15 01 7B 10 03 44 7C 2A 09 02 7D 45 02 0A
   49 6E 64 65 78 65 64 53 65 71 08 06 7F 00 FFFFFF84 20
   FFFFFF81 00 01 08 74 6F 53 74 72 69 6E 67 14 02 FFFFFF81 01
   10 04 FFFFFF81 02 FFFFFF81 05 0E 03 14 FFFFFF81 03 09 03 FFFFFF81 04 06
   01 06 50 72 65 64 65 66 09 04 FFFFFF81 06 FFFFFF81 07 02 06
   53 74 72 69 6E 67 0A 03 FFFFFF81 04 06 
  InnerClass: 
   public abstract ByOne=class scala/collection/immutable/Range$ByOne of class scala/collection/immutable/Range
   public final $anonfun$2=class scala/util/automata/NondetWordAutom$$anonfun$2 of class scala/util/automata/NondetWordAutom
   public final $anonfun$1=class scala/util/automata/NondetWordAutom$$anonfun$1 of class scala/util/automata/NondetWordAutom
   public final $anonfun$next$3=class scala/util/automata/NondetWordAutom$$anonfun$next$3 of class scala/util/automata/NondetWordAutom
   public final $anonfun$next$2=class scala/util/automata/NondetWordAutom$$anonfun$next$2 of class scala/util/automata/NondetWordAutom
   public final $anonfun$next$1=class scala/util/automata/NondetWordAutom$$anonfun$next$1 of class scala/util/automata/NondetWordAutom
   public final $anonfun$isEmpty$1=class scala/util/automata/NondetWordAutom$$anonfun$isEmpty$1 of class scala/util/automata/NondetWordAutom
   public final $anonfun$finalStates$1=class scala/util/automata/NondetWordAutom$$anonfun$finalStates$1 of class scala/util/automata/NondetWordAutom
   public final $anonfun$containsFinal$1=class scala/util/automata/NondetWordAutom$$anonfun$containsFinal$1 of class scala/util/automata/NondetWordAutom
  minor version: 0
  major version: 49
  Constant pool:
Asciz	SourceFile;
Asciz	NondetWordAutom.scala;
Asciz	nstates;
Asciz	()I;
Asciz	labels;
Asciz	()Lscala/collection/Seq;;
Asciz	()Lscala/collection/Seq<TT;>;;
Asciz	Signature;
Asciz	finals;
Asciz	()[I;
Asciz	delta;
Asciz	()[Lscala/collection/Map;;
Asciz	()[Lscala/collection/Map<TT;Lscala/collection/immutable/BitSet;>;;
Asciz	default;
Asciz	()[Lscala/collection/immutable/BitSet;;
Asciz	isFinal;
Asciz	(I)Z;
Asciz	Code;
Asciz	LineNumberTable;
Asciz	scala/util/automata/NondetWordAutom;
class	scala/util/automata/NondetWordAutom
NameAndType	finals:()[I
Method	scala/util/automata/NondetWordAutom.finals:()[I
Asciz	this;
Asciz	Lscala/util/automata/NondetWordAutom;;
Asciz	state;
Asciz	I;
Asciz	LocalVariableTable;
Asciz	finalTag;
Asciz	(I)I;
Asciz	containsFinal;
Asciz	(Lscala/collection/immutable/BitSet;)Z;
Asciz	scala/util/automata/NondetWordAutom$$anonfun$containsFinal$1;
class	scala/util/automata/NondetWordAutom$$anonfun$containsFinal$1
Asciz	<init>;
Asciz	(Lscala/util/automata/NondetWordAutom;)V;
NameAndType	"<init>":(Lscala/util/automata/NondetWordAutom;)V
Method	scala/util/automata/NondetWordAutom$$anonfun$containsFinal$1."<init>":(Lscala/util/automata/NondetWordAutom;)V
Asciz	scala/collection/IterableLike;
class	scala/collection/IterableLike
Asciz	exists;
Asciz	(Lscala/Function1;)Z;
NameAndType	exists:(Lscala/Function1;)Z
InterfaceMethod	scala/collection/IterableLike.exists:(Lscala/Function1;)Z
Asciz	Q;
Asciz	Lscala/collection/immutable/BitSet;;
Asciz	isEmpty;
Asciz	()Z;
Asciz	scala/Predef$;
class	scala/Predef$
Asciz	MODULE$;
Asciz	Lscala/Predef$;;
NameAndType	MODULE$:Lscala/Predef$;
Field	scala/Predef$.MODULE$:Lscala/Predef$;
Asciz	intWrapper;
Asciz	(I)Lscala/runtime/RichInt;;
NameAndType	intWrapper:(I)Lscala/runtime/RichInt;
Method	scala/Predef$.intWrapper:(I)Lscala/runtime/RichInt;
NameAndType	nstates:()I
Method	scala/util/automata/NondetWordAutom.nstates:()I
Asciz	scala/runtime/RichInt;
class	scala/runtime/RichInt
Asciz	until;
Asciz	(I)Lscala/collection/immutable/Range$ByOne;;
NameAndType	until:(I)Lscala/collection/immutable/Range$ByOne;
Method	scala/runtime/RichInt.until:(I)Lscala/collection/immutable/Range$ByOne;
Asciz	scala/collection/IndexedSeqLike;
class	scala/collection/IndexedSeqLike
Asciz	scala/util/automata/NondetWordAutom$$anonfun$isEmpty$1;
class	scala/util/automata/NondetWordAutom$$anonfun$isEmpty$1
Method	scala/util/automata/NondetWordAutom$$anonfun$isEmpty$1."<init>":(Lscala/util/automata/NondetWordAutom;)V
Asciz	forall;
NameAndType	forall:(Lscala/Function1;)Z
InterfaceMethod	scala/collection/IndexedSeqLike.forall:(Lscala/Function1;)Z
Asciz	next;
Asciz	(ILjava/lang/Object;)Lscala/collection/immutable/BitSet;;
NameAndType	delta:()[Lscala/collection/Map;
Method	scala/util/automata/NondetWordAutom.delta:()[Lscala/collection/Map;
Asciz	scala/util/automata/NondetWordAutom$$anonfun$next$1;
class	scala/util/automata/NondetWordAutom$$anonfun$next$1
Asciz	(Lscala/util/automata/NondetWordAutom;I)V;
NameAndType	"<init>":(Lscala/util/automata/NondetWordAutom;I)V
Method	scala/util/automata/NondetWordAutom$$anonfun$next$1."<init>":(Lscala/util/automata/NondetWordAutom;I)V
Asciz	scala/collection/MapLike;
class	scala/collection/MapLike
Asciz	getOrElse;
Asciz	(Ljava/lang/Object;Lscala/Function0;)Ljava/lang/Object;;
NameAndType	getOrElse:(Ljava/lang/Object;Lscala/Function0;)Ljava/lang/Object;
InterfaceMethod	scala/collection/MapLike.getOrElse:(Ljava/lang/Object;Lscala/Function0;)Ljava/lang/Object;
Asciz	scala/collection/immutable/BitSet;
class	scala/collection/immutable/BitSet
Asciz	q$1;
Asciz	a;
Asciz	Ljava/lang/Object;;
Asciz	(ITT;)Lscala/collection/immutable/BitSet;;
Asciz	(Lscala/collection/immutable/BitSet;Ljava/lang/Object;)Lscala/collection/immutable/BitSet;;
Asciz	scala/util/automata/NondetWordAutom$$anonfun$next$2;
class	scala/util/automata/NondetWordAutom$$anonfun$next$2
Asciz	(Lscala/util/automata/NondetWordAutom;Ljava/lang/Object;)V;
NameAndType	"<init>":(Lscala/util/automata/NondetWordAutom;Ljava/lang/Object;)V
Method	scala/util/automata/NondetWordAutom$$anonfun$next$2."<init>":(Lscala/util/automata/NondetWordAutom;Ljava/lang/Object;)V
Asciz	(Lscala/collection/immutable/BitSet;Lscala/Function1;)Lscala/collection/immutable/BitSet;;
NameAndType	next:(Lscala/collection/immutable/BitSet;Lscala/Function1;)Lscala/collection/immutable/BitSet;
Method	scala/util/automata/NondetWordAutom.next:(Lscala/collection/immutable/BitSet;Lscala/Function1;)Lscala/collection/immutable/BitSet;
Asciz	a$1;
Asciz	(Lscala/collection/immutable/BitSet;TT;)Lscala/collection/immutable/BitSet;;
Asciz	nextDefault;
Asciz	(Lscala/collection/immutable/BitSet;)Lscala/collection/immutable/BitSet;;
NameAndType	default:()[Lscala/collection/immutable/BitSet;
Method	scala/util/automata/NondetWordAutom.default:()[Lscala/collection/immutable/BitSet;
Asciz	[Ljava/lang/Object;;
class	"[Ljava/lang/Object;"
Asciz	wrapRefArray;
Asciz	([Ljava/lang/Object;)Lscala/collection/mutable/WrappedArray;;
NameAndType	wrapRefArray:([Ljava/lang/Object;)Lscala/collection/mutable/WrappedArray;
Method	scala/Predef$.wrapRefArray:([Ljava/lang/Object;)Lscala/collection/mutable/WrappedArray;
Asciz	scala/collection/immutable/Set$;
class	scala/collection/immutable/Set$
Asciz	Lscala/collection/immutable/Set$;;
NameAndType	MODULE$:Lscala/collection/immutable/Set$;
Field	scala/collection/immutable/Set$.MODULE$:Lscala/collection/immutable/Set$;
Asciz	canBuildFrom;
Asciz	()Lscala/collection/generic/CanBuildFrom;;
NameAndType	canBuildFrom:()Lscala/collection/generic/CanBuildFrom;
Method	scala/collection/immutable/Set$.canBuildFrom:()Lscala/collection/generic/CanBuildFrom;
Asciz	scala/collection/TraversableLike;
class	scala/collection/TraversableLike
Asciz	map;
Asciz	(Lscala/Function1;Lscala/collection/generic/CanBuildFrom;)Ljava/lang/Object;;
NameAndType	map:(Lscala/Function1;Lscala/collection/generic/CanBuildFrom;)Ljava/lang/Object;
InterfaceMethod	scala/collection/TraversableLike.map:(Lscala/Function1;Lscala/collection/generic/CanBuildFrom;)Ljava/lang/Object;
Asciz	scala/collection/immutable/BitSet$;
class	scala/collection/immutable/BitSet$
Asciz	Lscala/collection/immutable/BitSet$;;
NameAndType	MODULE$:Lscala/collection/immutable/BitSet$;
Field	scala/collection/immutable/BitSet$.MODULE$:Lscala/collection/immutable/BitSet$;
Asciz	empty;
Asciz	()Lscala/collection/immutable/BitSet;;
NameAndType	empty:()Lscala/collection/immutable/BitSet;
Method	scala/collection/immutable/BitSet$.empty:()Lscala/collection/immutable/BitSet;
Asciz	scala/util/automata/NondetWordAutom$$anonfun$next$3;
class	scala/util/automata/NondetWordAutom$$anonfun$next$3
Method	scala/util/automata/NondetWordAutom$$anonfun$next$3."<init>":(Lscala/util/automata/NondetWordAutom;)V
Asciz	foldLeft;
Asciz	(Ljava/lang/Object;Lscala/Function2;)Ljava/lang/Object;;
NameAndType	foldLeft:(Ljava/lang/Object;Lscala/Function2;)Ljava/lang/Object;
InterfaceMethod	scala/collection/TraversableLike.foldLeft:(Ljava/lang/Object;Lscala/Function2;)Ljava/lang/Object;
Asciz	f;
Asciz	Lscala/Function1;;
Asciz	(Lscala/collection/immutable/BitSet;Lscala/Function1<Ljava/lang/Integer;Lscala/collection/immutable/BitSet;>;)Lscala/collection/immutable/BitSet;;
Asciz	finalStates;
Asciz	()Lscala/collection/immutable/IndexedSeq;;
Asciz	scala/util/automata/NondetWordAutom$$anonfun$finalStates$1;
class	scala/util/automata/NondetWordAutom$$anonfun$finalStates$1
Method	scala/util/automata/NondetWordAutom$$anonfun$finalStates$1."<init>":(Lscala/util/automata/NondetWordAutom;)V
Asciz	filter;
Asciz	(Lscala/Function1;)Ljava/lang/Object;;
NameAndType	filter:(Lscala/Function1;)Ljava/lang/Object;
InterfaceMethod	scala/collection/TraversableLike.filter:(Lscala/Function1;)Ljava/lang/Object;
Asciz	scala/collection/immutable/IndexedSeq;
class	scala/collection/immutable/IndexedSeq
Asciz	()Lscala/collection/immutable/IndexedSeq<Ljava/lang/Integer;>;;
Asciz	toString;
Asciz	()Ljava/lang/String;;
Asciz	scala/collection/Map$;
class	scala/collection/Map$
Asciz	Lscala/collection/Map$;;
NameAndType	MODULE$:Lscala/collection/Map$;
Field	scala/collection/Map$.MODULE$:Lscala/collection/Map$;
NameAndType	finalStates:()Lscala/collection/immutable/IndexedSeq;
Method	scala/util/automata/NondetWordAutom.finalStates:()Lscala/collection/immutable/IndexedSeq;
Asciz	scala/util/automata/NondetWordAutom$$anonfun$1;
class	scala/util/automata/NondetWordAutom$$anonfun$1
Method	scala/util/automata/NondetWordAutom$$anonfun$1."<init>":(Lscala/util/automata/NondetWordAutom;)V
Asciz	scala/collection/immutable/IndexedSeq$;
class	scala/collection/immutable/IndexedSeq$
Asciz	Lscala/collection/immutable/IndexedSeq$;;
NameAndType	MODULE$:Lscala/collection/immutable/IndexedSeq$;
Field	scala/collection/immutable/IndexedSeq$.MODULE$:Lscala/collection/immutable/IndexedSeq$;
Method	scala/collection/immutable/IndexedSeq$.canBuildFrom:()Lscala/collection/generic/CanBuildFrom;
Asciz	scala/collection/Seq;
class	scala/collection/Seq
Asciz	apply;
Asciz	(Lscala/collection/Seq;)Lscala/collection/Map;;
NameAndType	apply:(Lscala/collection/Seq;)Lscala/collection/Map;
Method	scala/collection/Map$.apply:(Lscala/collection/Seq;)Lscala/collection/Map;
NameAndType	toString:()Ljava/lang/String;
InterfaceMethod	scala/collection/MapLike.toString:()Ljava/lang/String;
Asciz	scala/util/automata/NondetWordAutom$$anonfun$2;
class	scala/util/automata/NondetWordAutom$$anonfun$2
Method	scala/util/automata/NondetWordAutom$$anonfun$2."<init>":(Lscala/util/automata/NondetWordAutom;)V
Asciz	mkString;
NameAndType	mkString:()Ljava/lang/String;
InterfaceMethod	scala/collection/TraversableLike.mkString:()Ljava/lang/String;
Asciz	[NondetWordAutom  nstates=%d  finals=%s  delta=\n%s;
String	[NondetWordAutom  nstates=%d  finals=%s  delta=\n%s
Asciz	augmentString;
Asciz	(Ljava/lang/String;)Lscala/collection/immutable/StringOps;;
NameAndType	augmentString:(Ljava/lang/String;)Lscala/collection/immutable/StringOps;
Method	scala/Predef$.augmentString:(Ljava/lang/String;)Lscala/collection/immutable/StringOps;
Asciz	java/lang/Object;
class	java/lang/Object
Asciz	scala/runtime/BoxesRunTime;
class	scala/runtime/BoxesRunTime
Asciz	boxToInteger;
Asciz	(I)Ljava/lang/Integer;;
NameAndType	boxToInteger:(I)Ljava/lang/Integer;
Method	scala/runtime/BoxesRunTime.boxToInteger:(I)Ljava/lang/Integer;
Asciz	genericWrapArray;
Asciz	(Ljava/lang/Object;)Lscala/collection/mutable/WrappedArray;;
NameAndType	genericWrapArray:(Ljava/lang/Object;)Lscala/collection/mutable/WrappedArray;
Method	scala/Predef$.genericWrapArray:(Ljava/lang/Object;)Lscala/collection/mutable/WrappedArray;
Asciz	scala/collection/immutable/StringLike;
class	scala/collection/immutable/StringLike
Asciz	format;
Asciz	(Lscala/collection/Seq;)Ljava/lang/String;;
NameAndType	format:(Lscala/collection/Seq;)Ljava/lang/String;
InterfaceMethod	scala/collection/immutable/StringLike.format:(Lscala/collection/Seq;)Ljava/lang/String;
Asciz	finalString;
Asciz	Ljava/lang/String;;
Asciz	deltaString;
Asciz	()V;
NameAndType	"<init>":()V
Method	java/lang/Object."<init>":()V
Asciz	<T:Ljava/lang/Object;>Ljava/lang/Object;Lscala/ScalaObject;;
Asciz	ScalaSig;
Asciz	InnerClasses;
Asciz	scala/collection/immutable/Range$ByOne;
class	scala/collection/immutable/Range$ByOne
Asciz	scala/collection/immutable/Range;
class	scala/collection/immutable/Range
Asciz	ByOne;
Asciz	$anonfun$2;
Asciz	$anonfun$1;
Asciz	$anonfun$next$3;
Asciz	$anonfun$next$2;
Asciz	$anonfun$next$1;
Asciz	$anonfun$isEmpty$1;
Asciz	$anonfun$finalStates$1;
Asciz	$anonfun$containsFinal$1;
Asciz	scala/ScalaObject;
class	scala/ScalaObject

{
public abstract int nstates();
  Signature: ()I

public abstract scala.collection.Seq labels();
  Signature: ()Lscala/collection/Seq;
  Signature: length = 0x2
   00 07 

public abstract int[] finals();
  Signature: ()[I

public abstract scala.collection.Map[] delta();
  Signature: ()[Lscala/collection/Map;
  Signature: length = 0x2
   00 0D 

public abstract scala.collection.immutable.BitSet[] default();
  Signature: ()[Lscala/collection/immutable/BitSet;

public final boolean isFinal(int);
  Signature: (I)Z
  Code:
   Stack=2, Locals=2, Args_size=2
	aload_0
	invokevirtual	Method finals:()[I
	iload_1
	iaload
	iconst_0
	if_icmple	l1 // iconst_0
	iconst_1
	goto	l2 // ireturn
l1	iconst_0
l2	ireturn
  Labels:
   	l1 = 14 // iconst_0
   	l2 = 15 // ireturn
  LocalVariableTable: 
   Start  Length  Slot  Name   Signature
   0      16      0    this       Lscala/util/automata/NondetWordAutom;
   0      16      1    state       I


public final int finalTag(int);
  Signature: (I)I
  Code:
   Stack=2, Locals=2, Args_size=2
	aload_0
	invokevirtual	Method finals:()[I
	iload_1
	iaload
	ireturn
  Labels:
  LocalVariableTable: 
   Start  Length  Slot  Name   Signature
   0      7      0    this       Lscala/util/automata/NondetWordAutom;
   0      7      1    state       I


public final boolean containsFinal(scala.collection.immutable.BitSet);
  Signature: (Lscala/collection/immutable/BitSet;)Z
  Code:
   Stack=4, Locals=2, Args_size=2
	aload_1
	new	class scala/util/automata/NondetWordAutom$$anonfun$containsFinal$1
	dup
	aload_0
	invokespecial	Method scala/util/automata/NondetWordAutom$$anonfun$containsFinal$1."<init>":(Lscala/util/automata/NondetWordAutom;)V
	invokeinterface	InterfaceMethod scala/collection/IterableLike.exists:(Lscala/Function1;)Z
	ireturn
  Labels:
  LocalVariableTable: 
   Start  Length  Slot  Name   Signature
   0      15      0    this       Lscala/util/automata/NondetWordAutom;
   0      15      1    Q       Lscala/collection/immutable/BitSet;


public final boolean isEmpty();
  Signature: ()Z
  Code:
   Stack=4, Locals=1, Args_size=1
	getstatic	Field scala/Predef$.MODULE$:Lscala/Predef$;
	iconst_0
	invokevirtual	Method scala/Predef$.intWrapper:(I)Lscala/runtime/RichInt;
	aload_0
	invokevirtual	Method nstates:()I
	invokevirtual	Method scala/runtime/RichInt.until:(I)Lscala/collection/immutable/Range$ByOne;
	checkcast	class scala/collection/IndexedSeqLike
	new	class scala/util/automata/NondetWordAutom$$anonfun$isEmpty$1
	dup
	aload_0
	invokespecial	Method scala/util/automata/NondetWordAutom$$anonfun$isEmpty$1."<init>":(Lscala/util/automata/NondetWordAutom;)V
	invokeinterface	InterfaceMethod scala/collection/IndexedSeqLike.forall:(Lscala/Function1;)Z
	ireturn
  Labels:

public scala.collection.immutable.BitSet next(int, java.lang.Object);
  Signature: (ILjava/lang/Object;)Lscala/collection/immutable/BitSet;
  Code:
   Stack=6, Locals=3, Args_size=3
	aload_0
	invokevirtual	Method delta:()[Lscala/collection/Map;
	iload_1
	aaload
	aload_2
	new	class scala/util/automata/NondetWordAutom$$anonfun$next$1
	dup
	aload_0
	iload_1
	invokespecial	Method scala/util/automata/NondetWordAutom$$anonfun$next$1."<init>":(Lscala/util/automata/NondetWordAutom;I)V
	invokeinterface	InterfaceMethod scala/collection/MapLike.getOrElse:(Ljava/lang/Object;Lscala/Function0;)Ljava/lang/Object;
	checkcast	class scala/collection/immutable/BitSet
	areturn
  Labels:
  LocalVariableTable: 
   Start  Length  Slot  Name   Signature
   0      25      0    this       Lscala/util/automata/NondetWordAutom;
   0      25      1    q$1       I
   0      25      2    a       Ljava/lang/Object;

  Signature: length = 0x2
   00 5F 

public scala.collection.immutable.BitSet next(scala.collection.immutable.BitSet, java.lang.Object);
  Signature: (Lscala/collection/immutable/BitSet;Ljava/lang/Object;)Lscala/collection/immutable/BitSet;
  Code:
   Stack=6, Locals=3, Args_size=3
	aload_0
	aload_1
	new	class scala/util/automata/NondetWordAutom$$anonfun$next$2
	dup
	aload_0
	aload_2
	invokespecial	Method scala/util/automata/NondetWordAutom$$anonfun$next$2."<init>":(Lscala/util/automata/NondetWordAutom;Ljava/lang/Object;)V
	invokespecial	Method next:(Lscala/collection/immutable/BitSet;Lscala/Function1;)Lscala/collection/immutable/BitSet;
	areturn
  Labels:
  LocalVariableTable: 
   Start  Length  Slot  Name   Signature
   0      15      0    this       Lscala/util/automata/NondetWordAutom;
   0      15      1    Q       Lscala/collection/immutable/BitSet;
   0      15      2    a$1       Ljava/lang/Object;

  Signature: length = 0x2
   00 6A 

public scala.collection.immutable.BitSet nextDefault(scala.collection.immutable.BitSet);
  Signature: (Lscala/collection/immutable/BitSet;)Lscala/collection/immutable/BitSet;
  Code:
   Stack=4, Locals=2, Args_size=2
	aload_0
	aload_1
	getstatic	Field scala/Predef$.MODULE$:Lscala/Predef$;
	aload_0
	invokevirtual	Method default:()[Lscala/collection/immutable/BitSet;
	checkcast	class "[Ljava/lang/Object;"
	invokevirtual	Method scala/Predef$.wrapRefArray:([Ljava/lang/Object;)Lscala/collection/mutable/WrappedArray;
	invokespecial	Method next:(Lscala/collection/immutable/BitSet;Lscala/Function1;)Lscala/collection/immutable/BitSet;
	areturn
  Labels:
  LocalVariableTable: 
   Start  Length  Slot  Name   Signature
   0      19      0    this       Lscala/util/automata/NondetWordAutom;
   0      19      1    Q       Lscala/collection/immutable/BitSet;


private scala.collection.immutable.BitSet next(scala.collection.immutable.BitSet, scala.Function1);
  Signature: (Lscala/collection/immutable/BitSet;Lscala/Function1;)Lscala/collection/immutable/BitSet;
  Code:
   Stack=5, Locals=3, Args_size=3
	aload_1
	aload_2
	getstatic	Field scala/collection/immutable/Set$.MODULE$:Lscala/collection/immutable/Set$;
	invokevirtual	Method scala/collection/immutable/Set$.canBuildFrom:()Lscala/collection/generic/CanBuildFrom;
	invokeinterface	InterfaceMethod scala/collection/TraversableLike.map:(Lscala/Function1;Lscala/collection/generic/CanBuildFrom;)Ljava/lang/Object;
	checkcast	class scala/collection/TraversableLike
	getstatic	Field scala/collection/immutable/BitSet$.MODULE$:Lscala/collection/immutable/BitSet$;
	invokevirtual	Method scala/collection/immutable/BitSet$.empty:()Lscala/collection/immutable/BitSet;
	new	class scala/util/automata/NondetWordAutom$$anonfun$next$3
	dup
	aload_0
	invokespecial	Method scala/util/automata/NondetWordAutom$$anonfun$next$3."<init>":(Lscala/util/automata/NondetWordAutom;)V
	invokeinterface	InterfaceMethod scala/collection/TraversableLike.foldLeft:(Ljava/lang/Object;Lscala/Function2;)Ljava/lang/Object;
	checkcast	class scala/collection/immutable/BitSet
	areturn
  Labels:
  LocalVariableTable: 
   Start  Length  Slot  Name   Signature
   0      39      0    this       Lscala/util/automata/NondetWordAutom;
   0      39      1    Q       Lscala/collection/immutable/BitSet;
   0      39      2    f       Lscala/Function1;

  Signature: length = 0x2
   00 FFFFFF96 

private scala.collection.immutable.IndexedSeq finalStates();
  Signature: ()Lscala/collection/immutable/IndexedSeq;
  Code:
   Stack=4, Locals=1, Args_size=1
	getstatic	Field scala/Predef$.MODULE$:Lscala/Predef$;
	iconst_0
	invokevirtual	Method scala/Predef$.intWrapper:(I)Lscala/runtime/RichInt;
	aload_0
	invokevirtual	Method nstates:()I
	invokevirtual	Method scala/runtime/RichInt.until:(I)Lscala/collection/immutable/Range$ByOne;
	checkcast	class scala/collection/TraversableLike
	new	class scala/util/automata/NondetWordAutom$$anonfun$finalStates$1
	dup
	aload_0
	invokespecial	Method scala/util/automata/NondetWordAutom$$anonfun$finalStates$1."<init>":(Lscala/util/automata/NondetWordAutom;)V
	invokeinterface	InterfaceMethod scala/collection/TraversableLike.filter:(Lscala/Function1;)Ljava/lang/Object;
	checkcast	class scala/collection/immutable/IndexedSeq
	areturn
  Labels:
  Signature: length = 0x2
   00 FFFFFFA2 

public java.lang.String toString();
  Signature: ()Ljava/lang/String;
  Code:
   Stack=6, Locals=4, Args_size=1
	getstatic	Field scala/collection/Map$.MODULE$:Lscala/collection/Map$;
	aload_0
	invokespecial	Method finalStates:()Lscala/collection/immutable/IndexedSeq;
	new	class scala/util/automata/NondetWordAutom$$anonfun$1
	dup
	aload_0
	invokespecial	Method scala/util/automata/NondetWordAutom$$anonfun$1."<init>":(Lscala/util/automata/NondetWordAutom;)V
	getstatic	Field scala/collection/immutable/IndexedSeq$.MODULE$:Lscala/collection/immutable/IndexedSeq$;
	invokevirtual	Method scala/collection/immutable/IndexedSeq$.canBuildFrom:()Lscala/collection/generic/CanBuildFrom;
	invokeinterface	InterfaceMethod scala/collection/TraversableLike.map:(Lscala/Function1;Lscala/collection/generic/CanBuildFrom;)Ljava/lang/Object;
	checkcast	class scala/collection/Seq
	invokevirtual	Method scala/collection/Map$.apply:(Lscala/collection/Seq;)Lscala/collection/Map;
	invokeinterface	InterfaceMethod scala/collection/MapLike.toString:()Ljava/lang/String;
	astore_1
	getstatic	Field scala/Predef$.MODULE$:Lscala/Predef$;
	iconst_0
	invokevirtual	Method scala/Predef$.intWrapper:(I)Lscala/runtime/RichInt;
	aload_0
	invokevirtual	Method nstates:()I
	invokevirtual	Method scala/runtime/RichInt.until:(I)Lscala/collection/immutable/Range$ByOne;
	checkcast	class scala/collection/TraversableLike
	new	class scala/util/automata/NondetWordAutom$$anonfun$2
	dup
	aload_0
	invokespecial	Method scala/util/automata/NondetWordAutom$$anonfun$2."<init>":(Lscala/util/automata/NondetWordAutom;)V
	getstatic	Field scala/collection/immutable/IndexedSeq$.MODULE$:Lscala/collection/immutable/IndexedSeq$;
	invokevirtual	Method scala/collection/immutable/IndexedSeq$.canBuildFrom:()Lscala/collection/generic/CanBuildFrom;
	invokeinterface	InterfaceMethod scala/collection/TraversableLike.map:(Lscala/Function1;Lscala/collection/generic/CanBuildFrom;)Ljava/lang/Object;
	checkcast	class scala/collection/TraversableLike
	invokeinterface	InterfaceMethod scala/collection/TraversableLike.mkString:()Ljava/lang/String;
	astore_2
	getstatic	Field scala/Predef$.MODULE$:Lscala/Predef$;
	ldc	String [NondetWordAutom  nstates=%d  finals=%s  delta=\n%s
	invokevirtual	Method scala/Predef$.augmentString:(Ljava/lang/String;)Lscala/collection/immutable/StringOps;
	getstatic	Field scala/Predef$.MODULE$:Lscala/Predef$;
	iconst_3
	anewarray	class java/lang/Object
	dup
	iconst_0
	aload_0
	invokevirtual	Method nstates:()I
	istore_3
	iload_3
	invokestatic	Method scala/runtime/BoxesRunTime.boxToInteger:(I)Ljava/lang/Integer;
	aastore
	dup
	iconst_1
	aload_1
	aastore
	dup
	iconst_2
	aload_2
	aastore
	invokevirtual	Method scala/Predef$.genericWrapArray:(Ljava/lang/Object;)Lscala/collection/mutable/WrappedArray;
	invokeinterface	InterfaceMethod scala/collection/immutable/StringLike.format:(Lscala/collection/Seq;)Ljava/lang/String;
	areturn
  Labels:
  LocalVariableTable: 
   Start  Length  Slot  Name   Signature
   0      127      0    this       Lscala/util/automata/NondetWordAutom;
   38      88      1    finalString       Ljava/lang/String;
   83      43      2    deltaString       Ljava/lang/String;


public scala.util.automata.NondetWordAutom();
  Signature: ()V
  Code:
   Stack=1, Locals=1, Args_size=1
	aload_0
	invokespecial	Method java/lang/Object."<init>":()V
	return
  Labels:
  Signature: length = 0x2
   00 FFFFFFDE 

}

