Compiled from "ActorTask.scala"
public class scala.actors.ActorTask extends scala.actors.ReactorTask implements scala.ScalaObject
  SourceFile: "ActorTask.scala"
  Signature: length = 0x2
   00 36 
  ScalaSig: length = 0x15C
   05 00 37 06 09 01 02 FFFFFF84 FFFFFF80 FFFFFF80 FFFFFF80 00 02 06 02 09
   41 63 74 6F 72 54 61 73 6B 0A 02 03 04 01 06 61
   63 74 6F 72 73 0A 01 05 01 05 73 63 61 6C 61 13
   03 00 07 0E 10 03 08 09 0B 0D 01 02 09 02 0A 02
   02 0B 52 65 61 63 74 6F 72 54 61 73 6B 10 02 08
   0C 09 02 0D 02 02 05 41 63 74 6F 72 10 02 0F 10
   0D 01 04 09 02 11 04 02 0B 53 63 61 6C 61 4F 62
   6A 65 63 74 08 08 13 00 FFFFFF82 FFFFFF80 FFFFFFA0 FFFFFF80 04 0B 01 05
   61 63 74 6F 72 03 00 08 08 16 00 FFFFFF82 FFFFFF80 FFFFFFA0 FFFFFF80 04
   17 01 03 66 75 6E 10 03 0F 18 1A 09 02 19 04 02
   09 46 75 6E 63 74 69 6F 6E 30 10 02 0F 1B 09 02
   1C 04 02 04 55 6E 69 74 08 05 1E 00 FFFFFF84 00 1F 01
   06 3C 69 6E 69 74 3E 14 03 20 21 22 10 02 08 00
   08 05 13 1D FFFFFFC0 00 0B 08 05 16 1D FFFFFFC0 00 17 08 05
   24 00 FFFFFF84 28 25 01 0F 62 65 66 6F 72 65 45 78 65
   63 75 74 69 6E 67 14 01 1A 08 05 27 00 FFFFFF84 28 28
   01 0E 61 66 74 65 72 45 78 65 63 75 74 69 6E 67
   14 02 1A 29 08 05 2A 26 FFFFFFC0 00 2B 01 01 65 10 02
   2C 34 0E 02 2D 32 0E 02 2E 31 0D 01 2F 0A 02 30
   14 01 06 3C 72 6F 6F 74 3E 09 01 05 09 02 33 04
   01 07 70 61 63 6B 61 67 65 09 02 35 36 02 09 45
   78 63 65 70 74 69 6F 6E 0A 02 33 04 
  minor version: 0
  major version: 49
  Constant pool:
Asciz	SourceFile;
Asciz	ActorTask.scala;
Asciz	actor;
Asciz	Lscala/actors/Actor;;
Asciz	<init>;
Asciz	(Lscala/actors/Actor;Lscala/Function0;)V;
Asciz	Code;
Asciz	LineNumberTable;
Asciz	scala/actors/ActorTask;
class	scala/actors/ActorTask
NameAndType	actor:Lscala/actors/Actor;
Field	scala/actors/ActorTask.actor:Lscala/actors/Actor;
Asciz	scala/actors/ReactorTask;
class	scala/actors/ReactorTask
Asciz	(Lscala/actors/Reactor;Lscala/Function0;)V;
NameAndType	"<init>":(Lscala/actors/Reactor;Lscala/Function0;)V
Method	scala/actors/ReactorTask."<init>":(Lscala/actors/Reactor;Lscala/Function0;)V
Asciz	this;
Asciz	Lscala/actors/ActorTask;;
Asciz	fun;
Asciz	Lscala/Function0;;
Asciz	LocalVariableTable;
Asciz	(Lscala/actors/Actor;Lscala/Function0<Ljava/lang/Object;>;)V;
Asciz	Signature;
Asciz	afterExecuting;
Asciz	(Ljava/lang/Exception;)V;
Asciz	scala/actors/Actor;
class	scala/actors/Actor
Asciz	links;
Asciz	()Lscala/collection/immutable/List;;
NameAndType	links:()Lscala/collection/immutable/List;
InterfaceMethod	scala/actors/Actor.links:()Lscala/collection/immutable/List;
Asciz	scala/collection/IterableLike;
class	scala/collection/IterableLike
Asciz	isEmpty;
Asciz	()Z;
NameAndType	isEmpty:()Z
InterfaceMethod	scala/collection/IterableLike.isEmpty:()Z
Asciz	exitLinked;
Asciz	(Ljava/lang/Object;)V;
NameAndType	exitLinked:(Ljava/lang/Object;)V
InterfaceMethod	scala/actors/Actor.exitLinked:(Ljava/lang/Object;)V
Asciz	e;
Asciz	Ljava/lang/Exception;;
Asciz	beforeExecuting;
Asciz	()V;
Asciz	shouldExit;
NameAndType	shouldExit:()Z
InterfaceMethod	scala/actors/Actor.shouldExit:()Z
Asciz	exit;
Asciz	()Lscala/runtime/Nothing$;;
NameAndType	exit:()Lscala/runtime/Nothing$;
InterfaceMethod	scala/actors/Actor.exit:()Lscala/runtime/Nothing$;
Asciz	Lscala/actors/ReactorTask<Lscala/actors/Actor;>;Lscala/ScalaObject;;
Asciz	ScalaSig;
Asciz	scala/ScalaObject;
class	scala/ScalaObject

{
private final scala.actors.Actor actor;
  Signature: Lscala/actors/Actor;

public scala.actors.ActorTask(scala.actors.Actor, scala.Function0);
  Signature: (Lscala/actors/Actor;Lscala/Function0;)V
  Code:
   Stack=3, Locals=3, Args_size=3
	aload_0
	aload_1
	putfield	Field actor:Lscala/actors/Actor;
	aload_0
	aload_1
	aload_2
	invokespecial	Method scala/actors/ReactorTask."<init>":(Lscala/actors/Reactor;Lscala/Function0;)V
	return
  Labels:
  LocalVariableTable: 
   Start  Length  Slot  Name   Signature
   0      12      0    this       Lscala/actors/ActorTask;
   0      12      1    actor       Lscala/actors/Actor;
   0      12      2    fun       Lscala/Function0;

  Signature: length = 0x2
   00 17 

public void afterExecuting(java.lang.Exception);
  Signature: (Ljava/lang/Exception;)V
  Code:
   Stack=2, Locals=3, Args_size=2
	aload_0
	getfield	Field actor:Lscala/actors/Actor;
	dup
	astore_2
	monitorenter
	aload_0
	getfield	Field actor:Lscala/actors/Actor;
	invokeinterface	InterfaceMethod scala/actors/Actor.links:()Lscala/collection/immutable/List;
	invokeinterface	InterfaceMethod scala/collection/IterableLike.isEmpty:()Z
	ifeq	l1 // aload_0
	goto	l2 // aload_2
l1	aload_0
	getfield	Field actor:Lscala/actors/Actor;
	aload_1
	invokeinterface	InterfaceMethod scala/actors/Actor.exitLinked:(Ljava/lang/Object;)V
l2	aload_2
	monitorexit
	return
	aload_2
	monitorexit
	athrow
  Labels:
   	l1 = 27 // aload_0
   	l2 = 37 // aload_2
  Exception table:
   from   to  target type
     7    39    40   any
  LocalVariableTable: 
   Start  Length  Slot  Name   Signature
   0      43      0    this       Lscala/actors/ActorTask;
   0      43      1    e       Ljava/lang/Exception;


public void beforeExecuting();
  Signature: ()V
  Code:
   Stack=1, Locals=1, Args_size=1
	aload_0
	getfield	Field actor:Lscala/actors/Actor;
	invokeinterface	InterfaceMethod scala/actors/Actor.shouldExit:()Z
	ifeq	l1 // return
	aload_0
	getfield	Field actor:Lscala/actors/Actor;
	invokeinterface	InterfaceMethod scala/actors/Actor.exit:()Lscala/runtime/Nothing$;
	athrow
l1	return
  Labels:
   	l1 = 22 // return

}

