Compiled from "ActorTask.scala"
public class scala.actors.ActorTask extends scala.actors.ReactorTask implements scala.ScalaObject
  SourceFile: "ActorTask.scala"
  Signature: length = 0x2
   00 38 
  ScalaSig: length = 0x15C
   05 00 37 06 09 01 02 FFFFFF84 FFFFFF80 FFFFFF80 FFFFFF80 00 02 06 02 09
   41 63 74 6F 72 54 61 73 6B 0A 02 03 04 01 06 61
   63 74 6F 72 73 0A 01 05 01 05 73 63 61 6C 61 13
   03 00 07 0E 10 03 08 09 0B 0D 01 02 09 02 0A 02
   02 0B 52 65 61 63 74 6F 72 54 61 73 6B 10 02 08
   0C 09 02 0D 02 02 05 41 63 74 6F 72 10 02 0F 10
   0D 01 04 09 02 11 04 02 0B 53 63 61 6C 61 4F 62
   6A 65 63 74 08 08 13 00 FFFFFF82 FFFFFF80 FFFFFFA0 FFFFFF80 04 0B 01 05
   61 63 74 6F 72 03 00 08 08 16 00 FFFFFF82 FFFFFF80 FFFFFFA0 FFFFFF80 04
   17 01 03 66 75 6E 10 03 0F 18 1A 09 02 19 04 02
   09 46 75 6E 63 74 69 6F 6E 30 10 02 0F 1B 09 02
   1C 04 02 04 55 6E 69 74 08 05 1E 00 FFFFFF84 00 1F 01
   06 3C 69 6E 69 74 3E 14 03 20 21 22 10 02 08 00
   08 05 13 1D FFFFFFC0 00 0B 08 05 16 1D FFFFFFC0 00 17 08 05
   24 00 FFFFFF84 28 25 01 0F 62 65 66 6F 72 65 45 78 65
   63 75 74 69 6E 67 14 01 1A 08 05 27 00 FFFFFF84 28 28
   01 0E 61 66 74 65 72 45 78 65 63 75 74 69 6E 67
   14 02 1A 29 08 05 2A 26 FFFFFFC0 00 2B 01 01 65 10 02
   2C 34 0E 02 2D 32 0E 02 2E 31 0D 01 2F 0A 02 30
   14 01 06 3C 72 6F 6F 74 3E 09 01 05 09 02 33 04
   01 07 70 61 63 6B 61 67 65 09 02 35 36 02 09 45
   78 63 65 70 74 69 6F 6E 0A 02 33 04 
  minor version: 0
  major version: 49
  Constant pool:
const #1 = Asciz	SourceFile;
const #2 = Asciz	ActorTask.scala;
const #3 = Asciz	actor;
const #4 = Asciz	Lscala/actors/Actor;;
const #5 = Asciz	<init>;
const #6 = Asciz	(Lscala/actors/Actor;Lscala/Function0;)V;
const #7 = Asciz	Code;
const #8 = Asciz	LineNumberTable;
const #9 = Asciz	scala/actors/ActorTask;
const #10 = class	#9;	//  scala/actors/ActorTask
const #11 = NameAndType	#3:#4;//  actor:Lscala/actors/Actor;
const #12 = Field	#10.#11;	//  scala/actors/ActorTask.actor:Lscala/actors/Actor;
const #13 = Asciz	scala/actors/ReactorTask;
const #14 = class	#13;	//  scala/actors/ReactorTask
const #15 = Asciz	(Lscala/actors/Reactor;Lscala/Function0;)V;
const #16 = NameAndType	#5:#15;//  "<init>":(Lscala/actors/Reactor;Lscala/Function0;)V
const #17 = Method	#14.#16;	//  scala/actors/ReactorTask."<init>":(Lscala/actors/Reactor;Lscala/Function0;)V
const #18 = Asciz	this;
const #19 = Asciz	Lscala/actors/ActorTask;;
const #20 = Asciz	fun;
const #21 = Asciz	Lscala/Function0;;
const #22 = Asciz	LocalVariableTable;
const #23 = Asciz	(Lscala/actors/Actor;Lscala/Function0<Ljava/lang/Object;>;)V;
const #24 = Asciz	Signature;
const #25 = Asciz	afterExecuting;
const #26 = Asciz	(Ljava/lang/Exception;)V;
const #27 = Asciz	scala/actors/Actor;
const #28 = class	#27;	//  scala/actors/Actor
const #29 = Asciz	links;
const #30 = Asciz	()Lscala/collection/immutable/List;;
const #31 = NameAndType	#29:#30;//  links:()Lscala/collection/immutable/List;
const #32 = InterfaceMethod	#28.#31;	//  scala/actors/Actor.links:()Lscala/collection/immutable/List;
const #33 = Asciz	scala/collection/IterableLike;
const #34 = class	#33;	//  scala/collection/IterableLike
const #35 = Asciz	isEmpty;
const #36 = Asciz	()Z;
const #37 = NameAndType	#35:#36;//  isEmpty:()Z
const #38 = InterfaceMethod	#34.#37;	//  scala/collection/IterableLike.isEmpty:()Z
const #39 = Asciz	exitLinked;
const #40 = Asciz	(Ljava/lang/Object;)V;
const #41 = NameAndType	#39:#40;//  exitLinked:(Ljava/lang/Object;)V
const #42 = InterfaceMethod	#28.#41;	//  scala/actors/Actor.exitLinked:(Ljava/lang/Object;)V
const #43 = Asciz	java/lang/Throwable;
const #44 = class	#43;	//  java/lang/Throwable
const #45 = Asciz	e;
const #46 = Asciz	Ljava/lang/Exception;;
const #47 = Asciz	beforeExecuting;
const #48 = Asciz	()V;
const #49 = Asciz	shouldExit;
const #50 = NameAndType	#49:#36;//  shouldExit:()Z
const #51 = InterfaceMethod	#28.#50;	//  scala/actors/Actor.shouldExit:()Z
const #52 = Asciz	exit;
const #53 = Asciz	()Lscala/runtime/Nothing$;;
const #54 = NameAndType	#52:#53;//  exit:()Lscala/runtime/Nothing$;
const #55 = InterfaceMethod	#28.#54;	//  scala/actors/Actor.exit:()Lscala/runtime/Nothing$;
const #56 = Asciz	Lscala/actors/ReactorTask<Lscala/actors/Actor;>;Lscala/ScalaObject;;
const #57 = Asciz	ScalaSig;
const #58 = Asciz	scala/ScalaObject;
const #59 = class	#58;	//  scala/ScalaObject

{
public scala.actors.ActorTask(scala.actors.Actor, scala.Function0);
  Code:
   Stack=3, Locals=3, Args_size=3
   0:	aload_0
   1:	aload_1
   2:	putfield	#12; //Field actor:Lscala/actors/Actor;
   5:	aload_0
   6:	aload_1
   7:	aload_2
   8:	invokespecial	#17; //Method scala/actors/ReactorTask."<init>":(Lscala/actors/Reactor;Lscala/Function0;)V
   11:	return
  LineNumberTable: 
   line 20: 0

  LocalVariableTable: 
   Start  Length  Slot  Name   Signature
   0      12      0    this       Lscala/actors/ActorTask;
   0      12      1    actor       Lscala/actors/Actor;
   0      12      2    fun       Lscala/Function0;

  Signature: length = 0x2
   00 17 

public void afterExecuting(java.lang.Exception);
  Code:
   Stack=2, Locals=3, Args_size=2
   0:	aload_0
   1:	getfield	#12; //Field actor:Lscala/actors/Actor;
   4:	dup
   5:	astore_2
   6:	monitorenter
   7:	aload_0
   8:	getfield	#12; //Field actor:Lscala/actors/Actor;
   11:	invokeinterface	#32,  1; //InterfaceMethod scala/actors/Actor.links:()Lscala/collection/immutable/List;
   16:	invokeinterface	#38,  1; //InterfaceMethod scala/collection/IterableLike.isEmpty:()Z
   21:	ifeq	27
   24:	goto	37
   27:	aload_0
   28:	getfield	#12; //Field actor:Lscala/actors/Actor;
   31:	aload_1
   32:	invokeinterface	#42,  2; //InterfaceMethod scala/actors/Actor.exitLinked:(Ljava/lang/Object;)V
   37:	aload_2
   38:	monitorexit
   39:	return
   40:	aload_2
   41:	monitorexit
   42:	athrow
  Exception table:
   from   to  target type
     7    39    40   Class java/lang/Throwable

  LineNumberTable: 
   line 28: 0
   line 29: 7
   line 30: 27
   line 28: 37

  LocalVariableTable: 
   Start  Length  Slot  Name   Signature
   0      43      0    this       Lscala/actors/ActorTask;
   0      43      1    e       Ljava/lang/Exception;


public void beforeExecuting();
  Code:
   Stack=1, Locals=1, Args_size=1
   0:	aload_0
   1:	getfield	#12; //Field actor:Lscala/actors/Actor;
   4:	invokeinterface	#51,  1; //InterfaceMethod scala/actors/Actor.shouldExit:()Z
   9:	ifeq	22
   12:	aload_0
   13:	getfield	#12; //Field actor:Lscala/actors/Actor;
   16:	invokeinterface	#55,  1; //InterfaceMethod scala/actors/Actor.exit:()Lscala/runtime/Nothing$;
   21:	athrow
   22:	return
  LineNumberTable: 
   line 23: 0
   line 24: 12
   line 23: 22


}

