Compiled from "ReplyReactor.scala"
public interface scala.actors.ReplyReactor extends scala.actors.Reactor,scala.ScalaObject
  SourceFile: "ReplyReactor.scala"
  ScalaSig: length = 0x221
   05 00 57 06 08 01 02 FFFFFF84 FFFFFF90 FFFFFF80 FFFFFF81 00 07 02 0C 52
   65 70 6C 79 52 65 61 63 74 6F 72 0A 02 03 04 01
   06 61 63 74 6F 72 73 0A 01 05 01 05 73 63 61 6C
   61 03 00 13 04 00 08 10 14 10 02 09 0E 0D 01 0A
   0A 02 0B 0C 01 04 6C 61 6E 67 0A 01 0D 01 04 6A
   61 76 61 09 02 0F 0A 02 06 4F 62 6A 65 63 74 10
   02 11 12 0D 01 02 09 02 13 02 02 07 52 65 61 63
   74 6F 72 10 02 15 16 0D 01 04 09 02 17 04 02 0B
   53 63 61 6C 61 4F 62 6A 65 63 74 08 05 19 00 FFFFFF84
   00 1A 01 06 24 69 6E 69 74 24 14 01 1B 10 02 15
   1C 09 02 1D 04 02 04 55 6E 69 74 08 07 1F 00 FFFFFFC0
   FFFFFF80 FFFFFF84 08 20 01 07 73 65 6E 64 65 72 73 15 01 21
   10 03 22 2A 2D 0E 02 23 28 0E 02 24 27 0D 01 25
   0A 02 26 06 01 06 3C 72 6F 6F 74 3E 09 01 05 09
   02 29 04 01 07 70 61 63 6B 61 67 65 09 02 2B 2C
   02 04 4C 69 73 74 0A 02 29 04 10 03 11 2E 30 09
   02 2F 02 02 0D 4F 75 74 70 75 74 43 68 61 6E 6E
   65 6C 10 02 15 31 09 02 32 04 02 03 41 6E 79 08
   07 34 00 FFFFFFC0 FFFFFF80 FFFFFF84 08 35 01 0B 73 65 6E 64 65 72
   73 5F 24 65 71 14 02 1B 36 08 07 37 33 FFFFFF81 FFFFFF80 FFFFFFC0
   00 21 01 03 78 24 31 08 06 39 00 FFFFFFA0 FFFFFFA0 04 21 01
   08 73 65 6E 64 65 72 73 20 08 06 3B 00 FFFFFF84 08 02
   3C 01 06 73 65 6E 64 65 72 15 01 2D 08 06 3E 00
   FFFFFF84 08 02 3F 01 05 72 65 70 6C 79 14 02 1B 40 08
   05 41 3D FFFFFFC0 00 30 01 03 6D 73 67 08 05 43 00 FFFFFF84
   20 44 01 05 24 62 61 6E 67 14 02 1B 45 08 05 41
   42 FFFFFFC0 00 30 08 05 47 00 FFFFFF84 20 48 01 07 66 6F 72
   77 61 72 64 14 02 1B 49 08 05 41 46 FFFFFFC0 00 30 08
   06 4B 00 FFFFFFA0 FFFFFF84 28 4C 01 0E 72 65 73 75 6D 65 52
   65 63 65 69 76 65 72 14 03 1B 4D 52 08 05 4E 4A
   FFFFFFC0 00 4F 01 04 69 74 65 6D 10 04 15 50 30 2D 09
   02 51 04 02 06 54 75 70 6C 65 32 08 05 53 4A FFFFFFC0
   00 54 01 0C 6F 6E 53 61 6D 65 54 68 72 65 61 64
   10 02 15 55 09 02 56 04 02 07 42 6F 6F 6C 65 61
   6E 
  minor version: 0
  major version: 49
  Constant pool:
const #1 = Asciz	SourceFile;
const #2 = Asciz	ReplyReactor.scala;
const #3 = Asciz	resumeReceiver;
const #4 = Asciz	(Lscala/Tuple2;Z)V;
const #5 = Asciz	(Lscala/Tuple2<Ljava/lang/Object;Lscala/actors/OutputChannel<Ljava/lang/Object;>;>;Z)V;
const #6 = Asciz	Signature;
const #7 = Asciz	forward;
const #8 = Asciz	(Ljava/lang/Object;)V;
const #9 = Asciz	$bang;
const #10 = Asciz	reply;
const #11 = Asciz	sender;
const #12 = Asciz	()Lscala/actors/OutputChannel;;
const #13 = Asciz	()Lscala/actors/OutputChannel<Ljava/lang/Object;>;;
const #14 = Asciz	senders_$eq;
const #15 = Asciz	(Lscala/collection/immutable/List;)V;
const #16 = Asciz	(Lscala/collection/immutable/List<Lscala/actors/OutputChannel<Ljava/lang/Object;>;>;)V;
const #17 = Asciz	senders;
const #18 = Asciz	()Lscala/collection/immutable/List;;
const #19 = Asciz	()Lscala/collection/immutable/List<Lscala/actors/OutputChannel<Ljava/lang/Object;>;>;;
const #20 = Asciz	ScalaSig;
const #21 = Asciz	scala/actors/ReplyReactor;
const #22 = class	#21;	//  scala/actors/ReplyReactor
const #23 = Asciz	java/lang/Object;
const #24 = class	#23;	//  java/lang/Object
const #25 = Asciz	scala/actors/Reactor;
const #26 = class	#25;	//  scala/actors/Reactor
const #27 = Asciz	scala/ScalaObject;
const #28 = class	#27;	//  scala/ScalaObject

{
public abstract void resumeReceiver(scala.Tuple2, boolean);
  Signature: length = 0x2
   00 05 

public abstract void forward(java.lang.Object);

public abstract void $bang(java.lang.Object);

public abstract void reply(java.lang.Object);

public abstract scala.actors.OutputChannel sender();
  Signature: length = 0x2
   00 0D 

public abstract void senders_$eq(scala.collection.immutable.List);
  Signature: length = 0x2
   00 10 

public abstract scala.collection.immutable.List senders();
  Signature: length = 0x2
   00 13 

}

