Compiled from "GenericArray.scala"
public class scala.collection.mutable.GenericArray extends java.lang.Object implements scala.collection.mutable.IndexedSeq,scala.collection.generic.GenericTraversableTemplate,scala.collection.mutable.IndexedSeqLike,scala.ScalaObject
  SourceFile: "GenericArray.scala"
  Signature: length = 0x2
   03 FFFFFF8A 
  ScalaSig: length = 0x3E1
   05 00 FFFFFF81 17 06 04 01 02 00 09 02 0C 47 65 6E 65
   72 69 63 41 72 72 61 79 0A 02 03 04 01 07 6D 75
   74 61 62 6C 65 0A 02 05 06 01 0A 63 6F 6C 6C 65
   63 74 69 6F 6E 0A 01 07 01 05 73 63 61 6C 61 03
   00 15 02 0A 19 13 06 00 0B 13 23 2A 2E 10 02 0C
   11 0D 01 0D 0A 02 0E 0F 01 04 6C 61 6E 67 0A 01
   10 01 04 6A 61 76 61 09 02 12 0D 02 06 4F 62 6A
   65 63 74 10 03 14 15 17 0D 01 02 09 02 16 02 02
   0A 49 6E 64 65 78 65 64 53 65 71 10 02 18 19 0C
   00 04 08 1A 00 FFFFFF84 FFFFFF80 FFFFFF80 FFFFFFC2 00 1B 02 01 41 11 02
   1C 20 10 02 1D 1E 0D 01 06 09 02 1F 06 02 07 4E
   6F 74 68 69 6E 67 10 02 1D 21 09 02 22 06 02 03
   41 6E 79 10 04 24 27 17 29 0D 01 25 0A 02 26 04
   01 07 67 65 6E 65 72 69 63 09 02 28 25 02 1A 47
   65 6E 65 72 69 63 54 72 61 76 65 72 73 61 62 6C
   65 54 65 6D 70 6C 61 74 65 10 02 14 00 10 04 14
   2B 17 2D 09 02 2C 02 02 0E 49 6E 64 65 78 65 64
   53 65 71 4C 69 6B 65 10 03 14 00 17 10 02 1D 2F
   09 02 30 06 02 0B 53 63 61 6C 61 4F 62 6A 65 63
   74 08 08 32 00 FFFFFF82 FFFFFFC2 FFFFFF80 FFFFFF84 20 33 01 06 6C 65 6E
   67 74 68 15 01 34 10 02 1D 35 09 02 36 06 02 03
   49 6E 74 08 08 38 00 FFFFFF82 FFFFFF80 FFFFFFA0 FFFFFF80 04 34 01 07 6C
   65 6E 67 74 68 20 08 05 3A 00 FFFFFF84 00 3B 01 06 3C
   69 6E 69 74 3E 14 02 2D 3C 08 05 32 39 FFFFFFC0 00 34
   08 05 3E 00 FFFFFF84 20 3F 01 09 63 6F 6D 70 61 6E 69
   6F 6E 15 01 40 10 03 24 41 29 09 02 42 25 02 10
   47 65 6E 65 72 69 63 43 6F 6D 70 61 6E 69 6F 6E
   08 07 44 00 FFFFFFC2 FFFFFF80 FFFFFF84 00 45 01 05 61 72 72 61 79
   15 01 46 10 03 1D 47 49 09 02 48 06 02 05 41 72
   72 61 79 10 02 1D 4A 09 02 4B 06 02 06 41 6E 79
   52 65 66 08 06 4D 00 FFFFFFA0 FFFFFF80 04 46 01 06 61 72 72
   61 79 20 08 05 4F 00 FFFFFF84 00 50 01 05 61 70 70 6C
   79 14 02 17 51 08 05 52 4E FFFFFFC0 00 34 01 03 69 64
   78 08 05 54 00 FFFFFF84 00 55 01 06 75 70 64 61 74 65
   14 03 56 59 5A 10 02 1D 57 09 02 58 06 02 04 55
   6E 69 74 08 05 52 53 FFFFFFC0 00 34 08 05 5B 53 FFFFFFC0 00
   17 01 04 65 6C 65 6D 08 05 5D 00 FFFFFF84 20 5E 01 07
   66 6F 72 65 61 63 68 15 02 5F 66 14 02 56 60 08
   05 61 5C FFFFFFC0 00 62 01 01 66 10 04 1D 63 17 65 09
   02 64 06 02 09 46 75 6E 63 74 69 6F 6E 31 10 02
   18 66 04 08 67 5C FFFFFF84 FFFFFF80 FFFFFF80 FFFFFFC2 00 1B 02 01 55 08
   05 69 00 FFFFFF84 20 6A 01 0B 63 6F 70 79 54 6F 41 72
   72 61 79 15 02 6B 70 14 04 56 6C 73 75 08 05 6D
   68 FFFFFFC0 00 6E 01 02 78 73 10 03 1D 47 6F 10 02 18
   70 04 08 71 68 FFFFFF84 FFFFFF80 FFFFFF80 FFFFFFC2 00 72 02 01 42 11 02
   17 20 08 05 74 68 FFFFFFC0 00 34 01 05 73 74 61 72 74
   08 05 76 68 FFFFFFC0 00 34 01 03 6C 65 6E 07 05 78 02
   FFFFFF88 02 79 01 0C 47 65 6E 65 72 69 63 41 72 72 61
   79 10 02 14 7A 06 08 01 02 FFFFFF84 FFFFFF80 FFFFFF80 FFFFFF88 02 7B 13
   03 7A 7C 2E 10 03 24 7D 29 09 02 7E 25 02 0A 53
   65 71 46 61 63 74 6F 72 79 08 06 3A 7A FFFFFF84 00 FFFFFF81
   00 14 01 79 08 07 FFFFFF81 02 7A FFFFFF84 01 FFFFFF81 03 01 0C 63
   61 6E 42 75 69 6C 64 46 72 6F 6D 15 04 FFFFFF81 04 FFFFFF81
   0C 10 09 24 FFFFFF81 05 FFFFFF81 07 FFFFFF81 0B FFFFFF81 0D 09 03 FFFFFF81 06
   25 02 0C 43 61 6E 42 75 69 6C 64 46 72 6F 6D 10
   04 FFFFFF81 08 FFFFFF81 09 0D 01 7A 09 03 FFFFFF81 0A 41 02 04 43
   6F 6C 6C 10 03 18 FFFFFF81 0C 04 09 1A FFFFFF81 01 FFFFFF84 FFFFFF80 FFFFFF80
   FFFFFFC2 00 1B 10 04 14 00 FFFFFF81 0B 08 07 FFFFFF81 0F 7A FFFFFF84 00
   FFFFFF81 10 01 0A 6E 65 77 42 75 69 6C 64 65 72 15 04
   FFFFFF81 11 FFFFFF81 15 10 07 14 FFFFFF81 12 FFFFFF81 14 FFFFFF81 16 09 03 FFFFFF81
   13 02 02 07 42 75 69 6C 64 65 72 10 03 18 FFFFFF81 15
   04 09 1A FFFFFF81 0E FFFFFF84 FFFFFF80 FFFFFF80 FFFFFFC2 00 1B 10 04 14 00 FFFFFF81
   14 
  InnerClass: 
   public #913= #910 of #912; //WithFilter=class scala/collection/TraversableLike$WithFilter of class scala/collection/TraversableLike
   public final #916= #915 of #95; //$anonfun$newBuilder$1=class scala/collection/mutable/GenericArray$$anonfun$newBuilder$1 of class scala/collection/mutable/GenericArray
  minor version: 0
  major version: 49
  Constant pool:
const #1 = Asciz	SourceFile;
const #2 = Asciz	GenericArray.scala;
const #3 = Asciz	canBuildFrom;
const #4 = Asciz	()Lscala/collection/generic/CanBuildFrom;;
const #5 = Asciz	Code;
const #6 = Asciz	scala/collection/mutable/GenericArray$;
const #7 = class	#6;	//  scala/collection/mutable/GenericArray$
const #8 = Asciz	MODULE$;
const #9 = Asciz	Lscala/collection/mutable/GenericArray$;;
const #10 = NameAndType	#8:#9;//  MODULE$:Lscala/collection/mutable/GenericArray$;
const #11 = Field	#7.#10;	//  scala/collection/mutable/GenericArray$.MODULE$:Lscala/collection/mutable/GenericArray$;
const #12 = NameAndType	#3:#4;//  canBuildFrom:()Lscala/collection/generic/CanBuildFrom;
const #13 = Method	#7.#12;	//  scala/collection/mutable/GenericArray$.canBuildFrom:()Lscala/collection/generic/CanBuildFrom;
const #14 = Asciz	<A:Ljava/lang/Object;>()Lscala/collection/generic/CanBuildFrom<Lscala/collection/mutable/GenericArray<*>;TA;Lscala/collection/mutable/GenericArray<TA;>;>;;
const #15 = Asciz	Signature;
const #16 = Asciz	unapplySeq;
const #17 = Asciz	(Lscala/collection/Seq;)Lscala/Some;;
const #18 = NameAndType	#16:#17;//  unapplySeq:(Lscala/collection/Seq;)Lscala/Some;
const #19 = Method	#7.#18;	//  scala/collection/mutable/GenericArray$.unapplySeq:(Lscala/collection/Seq;)Lscala/Some;
const #20 = Asciz	<A:Ljava/lang/Object;>(Lscala/collection/mutable/GenericArray<TA;>;)Lscala/Some<Lscala/collection/mutable/GenericArray<TA;>;>;;
const #21 = Asciz	iterate;
const #22 = Asciz	(Ljava/lang/Object;ILscala/Function1;)Lscala/collection/Traversable;;
const #23 = NameAndType	#21:#22;//  iterate:(Ljava/lang/Object;ILscala/Function1;)Lscala/collection/Traversable;
const #24 = Method	#7.#23;	//  scala/collection/mutable/GenericArray$.iterate:(Ljava/lang/Object;ILscala/Function1;)Lscala/collection/Traversable;
const #25 = Asciz	<A:Ljava/lang/Object;>(TA;ILscala/Function1<TA;TA;>;)Lscala/collection/mutable/GenericArray<TA;>;;
const #26 = Asciz	range;
const #27 = Asciz	(III)Lscala/collection/Traversable;;
const #28 = NameAndType	#26:#27;//  range:(III)Lscala/collection/Traversable;
const #29 = Method	#7.#28;	//  scala/collection/mutable/GenericArray$.range:(III)Lscala/collection/Traversable;
const #30 = Asciz	(III)Lscala/collection/mutable/GenericArray<Ljava/lang/Integer;>;;
const #31 = Asciz	(II)Lscala/collection/Traversable;;
const #32 = NameAndType	#26:#31;//  range:(II)Lscala/collection/Traversable;
const #33 = Method	#7.#32;	//  scala/collection/mutable/GenericArray$.range:(II)Lscala/collection/Traversable;
const #34 = Asciz	(II)Lscala/collection/mutable/GenericArray<Ljava/lang/Integer;>;;
const #35 = Asciz	tabulate;
const #36 = Asciz	(IIIIILscala/Function5;)Lscala/collection/Traversable;;
const #37 = NameAndType	#35:#36;//  tabulate:(IIIIILscala/Function5;)Lscala/collection/Traversable;
const #38 = Method	#7.#37;	//  scala/collection/mutable/GenericArray$.tabulate:(IIIIILscala/Function5;)Lscala/collection/Traversable;
const #39 = Asciz	<A:Ljava/lang/Object;>(IIIIILscala/Function5<Ljava/lang/Integer;Ljava/lang/Integer;Ljava/lang/Integer;Ljava/lang/Integer;Ljava/lang/Integer;TA;>;)Lscala/collection/mutable/GenericArray<Lscala/collection/mutable/GenericArray<Lscala/collection/mutable/GenericArray<Lscala/collection/mutable/GenericArray<Lscala/collection/mutable/GenericArray<TA;>;>;>;>;>;;
const #40 = Asciz	(IIIILscala/Function4;)Lscala/collection/Traversable;;
const #41 = NameAndType	#35:#40;//  tabulate:(IIIILscala/Function4;)Lscala/collection/Traversable;
const #42 = Method	#7.#41;	//  scala/collection/mutable/GenericArray$.tabulate:(IIIILscala/Function4;)Lscala/collection/Traversable;
const #43 = Asciz	<A:Ljava/lang/Object;>(IIIILscala/Function4<Ljava/lang/Integer;Ljava/lang/Integer;Ljava/lang/Integer;Ljava/lang/Integer;TA;>;)Lscala/collection/mutable/GenericArray<Lscala/collection/mutable/GenericArray<Lscala/collection/mutable/GenericArray<Lscala/collection/mutable/GenericArray<TA;>;>;>;>;;
const #44 = Asciz	(IIILscala/Function3;)Lscala/collection/Traversable;;
const #45 = NameAndType	#35:#44;//  tabulate:(IIILscala/Function3;)Lscala/collection/Traversable;
const #46 = Method	#7.#45;	//  scala/collection/mutable/GenericArray$.tabulate:(IIILscala/Function3;)Lscala/collection/Traversable;
const #47 = Asciz	<A:Ljava/lang/Object;>(IIILscala/Function3<Ljava/lang/Integer;Ljava/lang/Integer;Ljava/lang/Integer;TA;>;)Lscala/collection/mutable/GenericArray<Lscala/collection/mutable/GenericArray<Lscala/collection/mutable/GenericArray<TA;>;>;>;;
const #48 = Asciz	(IILscala/Function2;)Lscala/collection/Traversable;;
const #49 = NameAndType	#35:#48;//  tabulate:(IILscala/Function2;)Lscala/collection/Traversable;
const #50 = Method	#7.#49;	//  scala/collection/mutable/GenericArray$.tabulate:(IILscala/Function2;)Lscala/collection/Traversable;
const #51 = Asciz	<A:Ljava/lang/Object;>(IILscala/Function2<Ljava/lang/Integer;Ljava/lang/Integer;TA;>;)Lscala/collection/mutable/GenericArray<Lscala/collection/mutable/GenericArray<TA;>;>;;
const #52 = Asciz	(ILscala/Function1;)Lscala/collection/Traversable;;
const #53 = NameAndType	#35:#52;//  tabulate:(ILscala/Function1;)Lscala/collection/Traversable;
const #54 = Method	#7.#53;	//  scala/collection/mutable/GenericArray$.tabulate:(ILscala/Function1;)Lscala/collection/Traversable;
const #55 = Asciz	<A:Ljava/lang/Object;>(ILscala/Function1<Ljava/lang/Integer;TA;>;)Lscala/collection/mutable/GenericArray<TA;>;;
const #56 = Asciz	fill;
const #57 = Asciz	(IIIIILscala/Function0;)Lscala/collection/Traversable;;
const #58 = NameAndType	#56:#57;//  fill:(IIIIILscala/Function0;)Lscala/collection/Traversable;
const #59 = Method	#7.#58;	//  scala/collection/mutable/GenericArray$.fill:(IIIIILscala/Function0;)Lscala/collection/Traversable;
const #60 = Asciz	<A:Ljava/lang/Object;>(IIIIILscala/Function0<TA;>;)Lscala/collection/mutable/GenericArray<Lscala/collection/mutable/GenericArray<Lscala/collection/mutable/GenericArray<Lscala/collection/mutable/GenericArray<Lscala/collection/mutable/GenericArray<TA;>;>;>;>;>;;
const #61 = Asciz	(IIIILscala/Function0;)Lscala/collection/Traversable;;
const #62 = NameAndType	#56:#61;//  fill:(IIIILscala/Function0;)Lscala/collection/Traversable;
const #63 = Method	#7.#62;	//  scala/collection/mutable/GenericArray$.fill:(IIIILscala/Function0;)Lscala/collection/Traversable;
const #64 = Asciz	<A:Ljava/lang/Object;>(IIIILscala/Function0<TA;>;)Lscala/collection/mutable/GenericArray<Lscala/collection/mutable/GenericArray<Lscala/collection/mutable/GenericArray<Lscala/collection/mutable/GenericArray<TA;>;>;>;>;;
const #65 = Asciz	(IIILscala/Function0;)Lscala/collection/Traversable;;
const #66 = NameAndType	#56:#65;//  fill:(IIILscala/Function0;)Lscala/collection/Traversable;
const #67 = Method	#7.#66;	//  scala/collection/mutable/GenericArray$.fill:(IIILscala/Function0;)Lscala/collection/Traversable;
const #68 = Asciz	<A:Ljava/lang/Object;>(IIILscala/Function0<TA;>;)Lscala/collection/mutable/GenericArray<Lscala/collection/mutable/GenericArray<Lscala/collection/mutable/GenericArray<TA;>;>;>;;
const #69 = Asciz	(IILscala/Function0;)Lscala/collection/Traversable;;
const #70 = NameAndType	#56:#69;//  fill:(IILscala/Function0;)Lscala/collection/Traversable;
const #71 = Method	#7.#70;	//  scala/collection/mutable/GenericArray$.fill:(IILscala/Function0;)Lscala/collection/Traversable;
const #72 = Asciz	<A:Ljava/lang/Object;>(IILscala/Function0<TA;>;)Lscala/collection/mutable/GenericArray<Lscala/collection/mutable/GenericArray<TA;>;>;;
const #73 = Asciz	(ILscala/Function0;)Lscala/collection/Traversable;;
const #74 = NameAndType	#56:#73;//  fill:(ILscala/Function0;)Lscala/collection/Traversable;
const #75 = Method	#7.#74;	//  scala/collection/mutable/GenericArray$.fill:(ILscala/Function0;)Lscala/collection/Traversable;
const #76 = Asciz	<A:Ljava/lang/Object;>(ILscala/Function0<TA;>;)Lscala/collection/mutable/GenericArray<TA;>;;
const #77 = Asciz	concat;
const #78 = Asciz	(Lscala/collection/Seq;)Lscala/collection/Traversable;;
const #79 = NameAndType	#77:#78;//  concat:(Lscala/collection/Seq;)Lscala/collection/Traversable;
const #80 = Method	#7.#79;	//  scala/collection/mutable/GenericArray$.concat:(Lscala/collection/Seq;)Lscala/collection/Traversable;
const #81 = Asciz	<A:Ljava/lang/Object;>(Lscala/collection/Seq<Lscala/collection/Traversable<TA;>;>;)Lscala/collection/mutable/GenericArray<TA;>;;
const #82 = Asciz	empty;
const #83 = Asciz	()Lscala/collection/Traversable;;
const #84 = NameAndType	#82:#83;//  empty:()Lscala/collection/Traversable;
const #85 = Method	#7.#84;	//  scala/collection/mutable/GenericArray$.empty:()Lscala/collection/Traversable;
const #86 = Asciz	<A:Ljava/lang/Object;>()Lscala/collection/mutable/GenericArray<TA;>;;
const #87 = Asciz	array;
const #88 = Asciz	[Ljava/lang/Object;;
const #89 = Asciz	length;
const #90 = Asciz	I;
const #91 = Asciz	<init>;
const #92 = Asciz	(I)V;
const #93 = Asciz	LineNumberTable;
const #94 = Asciz	scala/collection/mutable/GenericArray;
const #95 = class	#94;	//  scala/collection/mutable/GenericArray
const #96 = NameAndType	#89:#90;//  length:I
const #97 = Field	#95.#96;	//  scala/collection/mutable/GenericArray.length:I
const #98 = Asciz	java/lang/Object;
const #99 = class	#98;	//  java/lang/Object
const #100 = Asciz	()V;
const #101 = NameAndType	#91:#100;//  "<init>":()V
const #102 = Method	#99.#101;	//  java/lang/Object."<init>":()V
const #103 = Asciz	scala/collection/TraversableLike$class;
const #104 = class	#103;	//  scala/collection/TraversableLike$class
const #105 = Asciz	$init$;
const #106 = Asciz	(Lscala/collection/TraversableLike;)V;
const #107 = NameAndType	#105:#106;//  $init$:(Lscala/collection/TraversableLike;)V
const #108 = Method	#104.#107;	//  scala/collection/TraversableLike$class.$init$:(Lscala/collection/TraversableLike;)V
const #109 = Asciz	scala/collection/generic/GenericTraversableTemplate$class;
const #110 = class	#109;	//  scala/collection/generic/GenericTraversableTemplate$class
const #111 = Asciz	(Lscala/collection/generic/GenericTraversableTemplate;)V;
const #112 = NameAndType	#105:#111;//  $init$:(Lscala/collection/generic/GenericTraversableTemplate;)V
const #113 = Method	#110.#112;	//  scala/collection/generic/GenericTraversableTemplate$class.$init$:(Lscala/collection/generic/GenericTraversableTemplate;)V
const #114 = Asciz	scala/collection/Traversable$class;
const #115 = class	#114;	//  scala/collection/Traversable$class
const #116 = Asciz	(Lscala/collection/Traversable;)V;
const #117 = NameAndType	#105:#116;//  $init$:(Lscala/collection/Traversable;)V
const #118 = Method	#115.#117;	//  scala/collection/Traversable$class.$init$:(Lscala/collection/Traversable;)V
const #119 = Asciz	scala/collection/mutable/Traversable$class;
const #120 = class	#119;	//  scala/collection/mutable/Traversable$class
const #121 = Asciz	(Lscala/collection/mutable/Traversable;)V;
const #122 = NameAndType	#105:#121;//  $init$:(Lscala/collection/mutable/Traversable;)V
const #123 = Method	#120.#122;	//  scala/collection/mutable/Traversable$class.$init$:(Lscala/collection/mutable/Traversable;)V
const #124 = Asciz	scala/collection/IterableLike$class;
const #125 = class	#124;	//  scala/collection/IterableLike$class
const #126 = Asciz	(Lscala/collection/IterableLike;)V;
const #127 = NameAndType	#105:#126;//  $init$:(Lscala/collection/IterableLike;)V
const #128 = Method	#125.#127;	//  scala/collection/IterableLike$class.$init$:(Lscala/collection/IterableLike;)V
const #129 = Asciz	scala/collection/Iterable$class;
const #130 = class	#129;	//  scala/collection/Iterable$class
const #131 = Asciz	(Lscala/collection/Iterable;)V;
const #132 = NameAndType	#105:#131;//  $init$:(Lscala/collection/Iterable;)V
const #133 = Method	#130.#132;	//  scala/collection/Iterable$class.$init$:(Lscala/collection/Iterable;)V
const #134 = Asciz	scala/collection/mutable/Iterable$class;
const #135 = class	#134;	//  scala/collection/mutable/Iterable$class
const #136 = Asciz	(Lscala/collection/mutable/Iterable;)V;
const #137 = NameAndType	#105:#136;//  $init$:(Lscala/collection/mutable/Iterable;)V
const #138 = Method	#135.#137;	//  scala/collection/mutable/Iterable$class.$init$:(Lscala/collection/mutable/Iterable;)V
const #139 = Asciz	scala/Function1$class;
const #140 = class	#139;	//  scala/Function1$class
const #141 = Asciz	(Lscala/Function1;)V;
const #142 = NameAndType	#105:#141;//  $init$:(Lscala/Function1;)V
const #143 = Method	#140.#142;	//  scala/Function1$class.$init$:(Lscala/Function1;)V
const #144 = Asciz	scala/PartialFunction$class;
const #145 = class	#144;	//  scala/PartialFunction$class
const #146 = Asciz	(Lscala/PartialFunction;)V;
const #147 = NameAndType	#105:#146;//  $init$:(Lscala/PartialFunction;)V
const #148 = Method	#145.#147;	//  scala/PartialFunction$class.$init$:(Lscala/PartialFunction;)V
const #149 = Asciz	scala/collection/SeqLike$class;
const #150 = class	#149;	//  scala/collection/SeqLike$class
const #151 = Asciz	(Lscala/collection/SeqLike;)V;
const #152 = NameAndType	#105:#151;//  $init$:(Lscala/collection/SeqLike;)V
const #153 = Method	#150.#152;	//  scala/collection/SeqLike$class.$init$:(Lscala/collection/SeqLike;)V
const #154 = Asciz	scala/collection/Seq$class;
const #155 = class	#154;	//  scala/collection/Seq$class
const #156 = Asciz	(Lscala/collection/Seq;)V;
const #157 = NameAndType	#105:#156;//  $init$:(Lscala/collection/Seq;)V
const #158 = Method	#155.#157;	//  scala/collection/Seq$class.$init$:(Lscala/collection/Seq;)V
const #159 = Asciz	scala/collection/mutable/Seq$class;
const #160 = class	#159;	//  scala/collection/mutable/Seq$class
const #161 = Asciz	(Lscala/collection/mutable/Seq;)V;
const #162 = NameAndType	#105:#161;//  $init$:(Lscala/collection/mutable/Seq;)V
const #163 = Method	#160.#162;	//  scala/collection/mutable/Seq$class.$init$:(Lscala/collection/mutable/Seq;)V
const #164 = Asciz	scala/collection/IndexedSeqLike$class;
const #165 = class	#164;	//  scala/collection/IndexedSeqLike$class
const #166 = Asciz	(Lscala/collection/IndexedSeqLike;)V;
const #167 = NameAndType	#105:#166;//  $init$:(Lscala/collection/IndexedSeqLike;)V
const #168 = Method	#165.#167;	//  scala/collection/IndexedSeqLike$class.$init$:(Lscala/collection/IndexedSeqLike;)V
const #169 = Asciz	scala/collection/IndexedSeq$class;
const #170 = class	#169;	//  scala/collection/IndexedSeq$class
const #171 = Asciz	(Lscala/collection/IndexedSeq;)V;
const #172 = NameAndType	#105:#171;//  $init$:(Lscala/collection/IndexedSeq;)V
const #173 = Method	#170.#172;	//  scala/collection/IndexedSeq$class.$init$:(Lscala/collection/IndexedSeq;)V
const #174 = Asciz	scala/collection/mutable/IndexedSeqLike$class;
const #175 = class	#174;	//  scala/collection/mutable/IndexedSeqLike$class
const #176 = Asciz	(Lscala/collection/mutable/IndexedSeqLike;)V;
const #177 = NameAndType	#105:#176;//  $init$:(Lscala/collection/mutable/IndexedSeqLike;)V
const #178 = Method	#175.#177;	//  scala/collection/mutable/IndexedSeqLike$class.$init$:(Lscala/collection/mutable/IndexedSeqLike;)V
const #179 = Asciz	scala/collection/mutable/IndexedSeq$class;
const #180 = class	#179;	//  scala/collection/mutable/IndexedSeq$class
const #181 = Asciz	(Lscala/collection/mutable/IndexedSeq;)V;
const #182 = NameAndType	#105:#181;//  $init$:(Lscala/collection/mutable/IndexedSeq;)V
const #183 = Method	#180.#182;	//  scala/collection/mutable/IndexedSeq$class.$init$:(Lscala/collection/mutable/IndexedSeq;)V
const #184 = NameAndType	#87:#88;//  array:[Ljava/lang/Object;
const #185 = Field	#95.#184;	//  scala/collection/mutable/GenericArray.array:[Ljava/lang/Object;
const #186 = Asciz	this;
const #187 = Asciz	Lscala/collection/mutable/GenericArray;;
const #188 = Asciz	LocalVariableTable;
const #189 = Asciz	apply;
const #190 = Asciz	(Ljava/lang/Object;)Ljava/lang/Object;;
const #191 = Asciz	scala/runtime/BoxesRunTime;
const #192 = class	#191;	//  scala/runtime/BoxesRunTime
const #193 = Asciz	unboxToInt;
const #194 = Asciz	(Ljava/lang/Object;)I;
const #195 = NameAndType	#193:#194;//  unboxToInt:(Ljava/lang/Object;)I
const #196 = Method	#192.#195;	//  scala/runtime/BoxesRunTime.unboxToInt:(Ljava/lang/Object;)I
const #197 = Asciz	(I)Ljava/lang/Object;;
const #198 = NameAndType	#189:#197;//  apply:(I)Ljava/lang/Object;
const #199 = Method	#95.#198;	//  scala/collection/mutable/GenericArray.apply:(I)Ljava/lang/Object;
const #200 = Asciz	v1;
const #201 = Asciz	Ljava/lang/Object;;
const #202 = Asciz	thisCollection;
const #203 = Asciz	()Lscala/collection/IndexedSeq;;
const #204 = Asciz	scala/collection/mutable/IndexedSeqLike;
const #205 = class	#204;	//  scala/collection/mutable/IndexedSeqLike
const #206 = Asciz	()Lscala/collection/mutable/IndexedSeq;;
const #207 = NameAndType	#202:#206;//  thisCollection:()Lscala/collection/mutable/IndexedSeq;
const #208 = InterfaceMethod	#205.#207;	//  scala/collection/mutable/IndexedSeqLike.thisCollection:()Lscala/collection/mutable/IndexedSeq;
const #209 = Asciz	()Lscala/collection/Seq;;
const #210 = Asciz	()Lscala/collection/Iterable;;
const #211 = Asciz	toCollection;
const #212 = Asciz	(Ljava/lang/Object;)Lscala/collection/IndexedSeq;;
const #213 = Asciz	(Ljava/lang/Object;)Lscala/collection/mutable/IndexedSeq;;
const #214 = NameAndType	#211:#213;//  toCollection:(Ljava/lang/Object;)Lscala/collection/mutable/IndexedSeq;
const #215 = InterfaceMethod	#205.#214;	//  scala/collection/mutable/IndexedSeqLike.toCollection:(Ljava/lang/Object;)Lscala/collection/mutable/IndexedSeq;
const #216 = Asciz	repr;
const #217 = Asciz	(Ljava/lang/Object;)Lscala/collection/Seq;;
const #218 = Asciz	(Ljava/lang/Object;)Lscala/collection/Iterable;;
const #219 = Asciz	(Ljava/lang/Object;)Lscala/collection/Traversable;;
const #220 = Asciz	view;
const #221 = Asciz	(II)Lscala/collection/IndexedSeqView;;
const #222 = Asciz	(II)Lscala/collection/mutable/IndexedSeqView;;
const #223 = NameAndType	#220:#222;//  view:(II)Lscala/collection/mutable/IndexedSeqView;
const #224 = InterfaceMethod	#205.#223;	//  scala/collection/mutable/IndexedSeqLike.view:(II)Lscala/collection/mutable/IndexedSeqView;
const #225 = Asciz	from;
const #226 = Asciz	until;
const #227 = Asciz	(II)Lscala/collection/SeqView;;
const #228 = Asciz	(II)Lscala/collection/IterableView;;
const #229 = Asciz	(II)Lscala/collection/TraversableView;;
const #230 = Asciz	isDefinedAt;
const #231 = Asciz	(Ljava/lang/Object;)Z;
const #232 = Asciz	scala/collection/SeqLike;
const #233 = class	#232;	//  scala/collection/SeqLike
const #234 = Asciz	(I)Z;
const #235 = NameAndType	#230:#234;//  isDefinedAt:(I)Z
const #236 = InterfaceMethod	#233.#235;	//  scala/collection/SeqLike.isDefinedAt:(I)Z
const #237 = Asciz	x;
const #238 = Asciz	andThen;
const #239 = Asciz	(Lscala/Function1;)Lscala/Function1;;
const #240 = Asciz	scala/PartialFunction;
const #241 = class	#240;	//  scala/PartialFunction
const #242 = Asciz	(Lscala/Function1;)Lscala/PartialFunction;;
const #243 = NameAndType	#238:#242;//  andThen:(Lscala/Function1;)Lscala/PartialFunction;
const #244 = InterfaceMethod	#241.#243;	//  scala/PartialFunction.andThen:(Lscala/Function1;)Lscala/PartialFunction;
const #245 = Asciz	g;
const #246 = Asciz	Lscala/Function1;;
const #247 = Asciz	copyToArray;
const #248 = Asciz	(Ljava/lang/Object;II)V;
const #249 = Asciz	scala/Predef$;
const #250 = class	#249;	//  scala/Predef$
const #251 = Asciz	Lscala/Predef$;;
const #252 = NameAndType	#8:#251;//  MODULE$:Lscala/Predef$;
const #253 = Field	#250.#252;	//  scala/Predef$.MODULE$:Lscala/Predef$;
const #254 = Asciz	intWrapper;
const #255 = Asciz	(I)Lscala/runtime/RichInt;;
const #256 = NameAndType	#254:#255;//  intWrapper:(I)Lscala/runtime/RichInt;
const #257 = Method	#250.#256;	//  scala/Predef$.intWrapper:(I)Lscala/runtime/RichInt;
const #258 = Asciz	scala/runtime/ScalaRunTime$;
const #259 = class	#258;	//  scala/runtime/ScalaRunTime$
const #260 = Asciz	Lscala/runtime/ScalaRunTime$;;
const #261 = NameAndType	#8:#260;//  MODULE$:Lscala/runtime/ScalaRunTime$;
const #262 = Field	#259.#261;	//  scala/runtime/ScalaRunTime$.MODULE$:Lscala/runtime/ScalaRunTime$;
const #263 = Asciz	array_length;
const #264 = NameAndType	#263:#194;//  array_length:(Ljava/lang/Object;)I
const #265 = Method	#259.#264;	//  scala/runtime/ScalaRunTime$.array_length:(Ljava/lang/Object;)I
const #266 = Asciz	scala/runtime/RichInt;
const #267 = class	#266;	//  scala/runtime/RichInt
const #268 = Asciz	min;
const #269 = Asciz	(I)I;
const #270 = NameAndType	#268:#269;//  min:(I)I
const #271 = Method	#267.#270;	//  scala/runtime/RichInt.min:(I)I
const #272 = Asciz	()I;
const #273 = NameAndType	#89:#272;//  length:()I
const #274 = Method	#95.#273;	//  scala/collection/mutable/GenericArray.length:()I
const #275 = Asciz	scala/Array$;
const #276 = class	#275;	//  scala/Array$
const #277 = Asciz	Lscala/Array$;;
const #278 = NameAndType	#8:#277;//  MODULE$:Lscala/Array$;
const #279 = Field	#276.#278;	//  scala/Array$.MODULE$:Lscala/Array$;
const #280 = Asciz	()[Ljava/lang/Object;;
const #281 = NameAndType	#87:#280;//  array:()[Ljava/lang/Object;
const #282 = Method	#95.#281;	//  scala/collection/mutable/GenericArray.array:()[Ljava/lang/Object;
const #283 = Asciz	copy;
const #284 = Asciz	(Ljava/lang/Object;ILjava/lang/Object;II)V;
const #285 = NameAndType	#283:#284;//  copy:(Ljava/lang/Object;ILjava/lang/Object;II)V
const #286 = Method	#276.#285;	//  scala/Array$.copy:(Ljava/lang/Object;ILjava/lang/Object;II)V
const #287 = Asciz	xs;
const #288 = Asciz	start;
const #289 = Asciz	len;
const #290 = Asciz	len1;
const #291 = Asciz	<B:Ljava/lang/Object;>([TB;II)V;
const #292 = Asciz	foreach;
const #293 = Asciz	scala/Function1;
const #294 = class	#293;	//  scala/Function1
const #295 = NameAndType	#189:#190;//  apply:(Ljava/lang/Object;)Ljava/lang/Object;
const #296 = InterfaceMethod	#294.#295;	//  scala/Function1.apply:(Ljava/lang/Object;)Ljava/lang/Object;
const #297 = Asciz	f;
const #298 = Asciz	i;
const #299 = Asciz	<U:Ljava/lang/Object;>(Lscala/Function1<TA;TU;>;)V;
const #300 = Asciz	update;
const #301 = Asciz	(ILjava/lang/Object;)V;
const #302 = Asciz	java/lang/IndexOutOfBoundsException;
const #303 = class	#302;	//  java/lang/IndexOutOfBoundsException
const #304 = Asciz	boxToInteger;
const #305 = Asciz	(I)Ljava/lang/Integer;;
const #306 = NameAndType	#304:#305;//  boxToInteger:(I)Ljava/lang/Integer;
const #307 = Method	#192.#306;	//  scala/runtime/BoxesRunTime.boxToInteger:(I)Ljava/lang/Integer;
const #308 = Asciz	toString;
const #309 = Asciz	()Ljava/lang/String;;
const #310 = NameAndType	#308:#309;//  toString:()Ljava/lang/String;
const #311 = Method	#99.#310;	//  java/lang/Object.toString:()Ljava/lang/String;
const #312 = Asciz	(Ljava/lang/String;)V;
const #313 = NameAndType	#91:#312;//  "<init>":(Ljava/lang/String;)V
const #314 = Method	#303.#313;	//  java/lang/IndexOutOfBoundsException."<init>":(Ljava/lang/String;)V
const #315 = Asciz	idx;
const #316 = Asciz	elem;
const #317 = Asciz	(ITA;)V;
const #318 = Asciz	(I)TA;;
const #319 = Asciz	companion;
const #320 = Asciz	()Lscala/collection/generic/GenericCompanion;;
const #321 = Asciz	()Lscala/collection/generic/GenericCompanion<Lscala/collection/mutable/GenericArray;>;;
const #322 = Asciz	withFilter;
const #323 = Asciz	(Lscala/Function1;)Lscala/collection/TraversableLike$WithFilter;;
const #324 = Asciz	(Lscala/collection/TraversableLike;Lscala/Function1;)Lscala/collection/TraversableLike$WithFilter;;
const #325 = NameAndType	#322:#324;//  withFilter:(Lscala/collection/TraversableLike;Lscala/Function1;)Lscala/collection/TraversableLike$WithFilter;
const #326 = Method	#104.#325;	//  scala/collection/TraversableLike$class.withFilter:(Lscala/collection/TraversableLike;Lscala/Function1;)Lscala/collection/TraversableLike$WithFilter;
const #327 = Asciz	p;
const #328 = Asciz	stringPrefix;
const #329 = Asciz	(Lscala/collection/TraversableLike;)Ljava/lang/String;;
const #330 = NameAndType	#328:#329;//  stringPrefix:(Lscala/collection/TraversableLike;)Ljava/lang/String;
const #331 = Method	#104.#330;	//  scala/collection/TraversableLike$class.stringPrefix:(Lscala/collection/TraversableLike;)Ljava/lang/String;
const #332 = Asciz	addString;
const #333 = Asciz	(Lscala/collection/mutable/StringBuilder;)Lscala/collection/mutable/StringBuilder;;
const #334 = Asciz	(Lscala/collection/TraversableLike;Lscala/collection/mutable/StringBuilder;)Lscala/collection/mutable/StringBuilder;;
const #335 = NameAndType	#332:#334;//  addString:(Lscala/collection/TraversableLike;Lscala/collection/mutable/StringBuilder;)Lscala/collection/mutable/StringBuilder;
const #336 = Method	#104.#335;	//  scala/collection/TraversableLike$class.addString:(Lscala/collection/TraversableLike;Lscala/collection/mutable/StringBuilder;)Lscala/collection/mutable/StringBuilder;
const #337 = Asciz	b;
const #338 = Asciz	Lscala/collection/mutable/StringBuilder;;
const #339 = Asciz	(Lscala/collection/mutable/StringBuilder;Ljava/lang/String;)Lscala/collection/mutable/StringBuilder;;
const #340 = Asciz	(Lscala/collection/TraversableLike;Lscala/collection/mutable/StringBuilder;Ljava/lang/String;)Lscala/collection/mutable/StringBuilder;;
const #341 = NameAndType	#332:#340;//  addString:(Lscala/collection/TraversableLike;Lscala/collection/mutable/StringBuilder;Ljava/lang/String;)Lscala/collection/mutable/StringBuilder;
const #342 = Method	#104.#341;	//  scala/collection/TraversableLike$class.addString:(Lscala/collection/TraversableLike;Lscala/collection/mutable/StringBuilder;Ljava/lang/String;)Lscala/collection/mutable/StringBuilder;
const #343 = Asciz	sep;
const #344 = Asciz	Ljava/lang/String;;
const #345 = Asciz	(Lscala/collection/mutable/StringBuilder;Ljava/lang/String;Ljava/lang/String;Ljava/lang/String;)Lscala/collection/mutable/StringBuilder;;
const #346 = Asciz	(Lscala/collection/TraversableLike;Lscala/collection/mutable/StringBuilder;Ljava/lang/String;Ljava/lang/String;Ljava/lang/String;)Lscala/collection/mutable/StringBuilder;;
const #347 = NameAndType	#332:#346;//  addString:(Lscala/collection/TraversableLike;Lscala/collection/mutable/StringBuilder;Ljava/lang/String;Ljava/lang/String;Ljava/lang/String;)Lscala/collection/mutable/StringBuilder;
const #348 = Method	#104.#347;	//  scala/collection/TraversableLike$class.addString:(Lscala/collection/TraversableLike;Lscala/collection/mutable/StringBuilder;Ljava/lang/String;Ljava/lang/String;Ljava/lang/String;)Lscala/collection/mutable/StringBuilder;
const #349 = Asciz	end;
const #350 = Asciz	mkString;
const #351 = NameAndType	#350:#329;//  mkString:(Lscala/collection/TraversableLike;)Ljava/lang/String;
const #352 = Method	#104.#351;	//  scala/collection/TraversableLike$class.mkString:(Lscala/collection/TraversableLike;)Ljava/lang/String;
const #353 = Asciz	(Ljava/lang/String;)Ljava/lang/String;;
const #354 = Asciz	(Lscala/collection/TraversableLike;Ljava/lang/String;)Ljava/lang/String;;
const #355 = NameAndType	#350:#354;//  mkString:(Lscala/collection/TraversableLike;Ljava/lang/String;)Ljava/lang/String;
const #356 = Method	#104.#355;	//  scala/collection/TraversableLike$class.mkString:(Lscala/collection/TraversableLike;Ljava/lang/String;)Ljava/lang/String;
const #357 = Asciz	(Ljava/lang/String;Ljava/lang/String;Ljava/lang/String;)Ljava/lang/String;;
const #358 = Asciz	(Lscala/collection/TraversableLike;Ljava/lang/String;Ljava/lang/String;Ljava/lang/String;)Ljava/lang/String;;
const #359 = NameAndType	#350:#358;//  mkString:(Lscala/collection/TraversableLike;Ljava/lang/String;Ljava/lang/String;Ljava/lang/String;)Ljava/lang/String;
const #360 = Method	#104.#359;	//  scala/collection/TraversableLike$class.mkString:(Lscala/collection/TraversableLike;Ljava/lang/String;Ljava/lang/String;Ljava/lang/String;)Ljava/lang/String;
const #361 = Asciz	toSet;
const #362 = Asciz	()Lscala/collection/immutable/Set;;
const #363 = Asciz	(Lscala/collection/TraversableLike;)Lscala/collection/immutable/Set;;
const #364 = NameAndType	#361:#363;//  toSet:(Lscala/collection/TraversableLike;)Lscala/collection/immutable/Set;
const #365 = Method	#104.#364;	//  scala/collection/TraversableLike$class.toSet:(Lscala/collection/TraversableLike;)Lscala/collection/immutable/Set;
const #366 = Asciz	toIndexedSeq;
const #367 = Asciz	(Lscala/collection/TraversableLike;)Lscala/collection/mutable/IndexedSeq;;
const #368 = NameAndType	#366:#367;//  toIndexedSeq:(Lscala/collection/TraversableLike;)Lscala/collection/mutable/IndexedSeq;
const #369 = Method	#104.#368;	//  scala/collection/TraversableLike$class.toIndexedSeq:(Lscala/collection/TraversableLike;)Lscala/collection/mutable/IndexedSeq;
const #370 = Asciz	toList;
const #371 = Asciz	()Lscala/collection/immutable/List;;
const #372 = Asciz	(Lscala/collection/TraversableLike;)Lscala/collection/immutable/List;;
const #373 = NameAndType	#370:#372;//  toList:(Lscala/collection/TraversableLike;)Lscala/collection/immutable/List;
const #374 = Method	#104.#373;	//  scala/collection/TraversableLike$class.toList:(Lscala/collection/TraversableLike;)Lscala/collection/immutable/List;
const #375 = Asciz	toArray;
const #376 = Asciz	(Lscala/reflect/ClassManifest;)Ljava/lang/Object;;
const #377 = Asciz	(Lscala/collection/TraversableLike;Lscala/reflect/ClassManifest;)Ljava/lang/Object;;
const #378 = NameAndType	#375:#377;//  toArray:(Lscala/collection/TraversableLike;Lscala/reflect/ClassManifest;)Ljava/lang/Object;
const #379 = Method	#104.#378;	//  scala/collection/TraversableLike$class.toArray:(Lscala/collection/TraversableLike;Lscala/reflect/ClassManifest;)Ljava/lang/Object;
const #380 = Asciz	evidence$1;
const #381 = Asciz	Lscala/reflect/ClassManifest;;
const #382 = Asciz	(Ljava/lang/Object;)V;
const #383 = Asciz	(Lscala/collection/TraversableLike;Ljava/lang/Object;)V;
const #384 = NameAndType	#247:#383;//  copyToArray:(Lscala/collection/TraversableLike;Ljava/lang/Object;)V
const #385 = Method	#104.#384;	//  scala/collection/TraversableLike$class.copyToArray:(Lscala/collection/TraversableLike;Ljava/lang/Object;)V
const #386 = Asciz	(Ljava/lang/Object;I)V;
const #387 = Asciz	(Lscala/collection/TraversableLike;Ljava/lang/Object;I)V;
const #388 = NameAndType	#247:#387;//  copyToArray:(Lscala/collection/TraversableLike;Ljava/lang/Object;I)V
const #389 = Method	#104.#388;	//  scala/collection/TraversableLike$class.copyToArray:(Lscala/collection/TraversableLike;Ljava/lang/Object;I)V
const #390 = Asciz	copyToBuffer;
const #391 = Asciz	(Lscala/collection/mutable/Buffer;)V;
const #392 = Asciz	(Lscala/collection/TraversableLike;Lscala/collection/mutable/Buffer;)V;
const #393 = NameAndType	#390:#392;//  copyToBuffer:(Lscala/collection/TraversableLike;Lscala/collection/mutable/Buffer;)V
const #394 = Method	#104.#393;	//  scala/collection/TraversableLike$class.copyToBuffer:(Lscala/collection/TraversableLike;Lscala/collection/mutable/Buffer;)V
const #395 = Asciz	dest;
const #396 = Asciz	Lscala/collection/mutable/Buffer;;
const #397 = Asciz	lastOption;
const #398 = Asciz	()Lscala/Option;;
const #399 = Asciz	(Lscala/collection/TraversableLike;)Lscala/Option;;
const #400 = NameAndType	#397:#399;//  lastOption:(Lscala/collection/TraversableLike;)Lscala/Option;
const #401 = Method	#104.#400;	//  scala/collection/TraversableLike$class.lastOption:(Lscala/collection/TraversableLike;)Lscala/Option;
const #402 = Asciz	headOption;
const #403 = NameAndType	#402:#399;//  headOption:(Lscala/collection/TraversableLike;)Lscala/Option;
const #404 = Method	#104.#403;	//  scala/collection/TraversableLike$class.headOption:(Lscala/collection/TraversableLike;)Lscala/Option;
const #405 = Asciz	max;
const #406 = Asciz	(Lscala/math/Ordering;)Ljava/lang/Object;;
const #407 = Asciz	(Lscala/collection/TraversableLike;Lscala/math/Ordering;)Ljava/lang/Object;;
const #408 = NameAndType	#405:#407;//  max:(Lscala/collection/TraversableLike;Lscala/math/Ordering;)Ljava/lang/Object;
const #409 = Method	#104.#408;	//  scala/collection/TraversableLike$class.max:(Lscala/collection/TraversableLike;Lscala/math/Ordering;)Ljava/lang/Object;
const #410 = Asciz	cmp;
const #411 = Asciz	Lscala/math/Ordering;;
const #412 = NameAndType	#268:#407;//  min:(Lscala/collection/TraversableLike;Lscala/math/Ordering;)Ljava/lang/Object;
const #413 = Method	#104.#412;	//  scala/collection/TraversableLike$class.min:(Lscala/collection/TraversableLike;Lscala/math/Ordering;)Ljava/lang/Object;
const #414 = Asciz	product;
const #415 = Asciz	(Lscala/math/Numeric;)Ljava/lang/Object;;
const #416 = Asciz	(Lscala/collection/TraversableLike;Lscala/math/Numeric;)Ljava/lang/Object;;
const #417 = NameAndType	#414:#416;//  product:(Lscala/collection/TraversableLike;Lscala/math/Numeric;)Ljava/lang/Object;
const #418 = Method	#104.#417;	//  scala/collection/TraversableLike$class.product:(Lscala/collection/TraversableLike;Lscala/math/Numeric;)Ljava/lang/Object;
const #419 = Asciz	num;
const #420 = Asciz	Lscala/math/Numeric;;
const #421 = Asciz	sum;
const #422 = NameAndType	#421:#416;//  sum:(Lscala/collection/TraversableLike;Lscala/math/Numeric;)Ljava/lang/Object;
const #423 = Method	#104.#422;	//  scala/collection/TraversableLike$class.sum:(Lscala/collection/TraversableLike;Lscala/math/Numeric;)Ljava/lang/Object;
const #424 = Asciz	reduceRightOption;
const #425 = Asciz	(Lscala/Function2;)Lscala/Option;;
const #426 = Asciz	(Lscala/collection/TraversableLike;Lscala/Function2;)Lscala/Option;;
const #427 = NameAndType	#424:#426;//  reduceRightOption:(Lscala/collection/TraversableLike;Lscala/Function2;)Lscala/Option;
const #428 = Method	#104.#427;	//  scala/collection/TraversableLike$class.reduceRightOption:(Lscala/collection/TraversableLike;Lscala/Function2;)Lscala/Option;
const #429 = Asciz	op;
const #430 = Asciz	Lscala/Function2;;
const #431 = Asciz	reduceLeftOption;
const #432 = NameAndType	#431:#426;//  reduceLeftOption:(Lscala/collection/TraversableLike;Lscala/Function2;)Lscala/Option;
const #433 = Method	#104.#432;	//  scala/collection/TraversableLike$class.reduceLeftOption:(Lscala/collection/TraversableLike;Lscala/Function2;)Lscala/Option;
const #434 = Asciz	$colon$bslash;
const #435 = Asciz	(Ljava/lang/Object;Lscala/Function2;)Ljava/lang/Object;;
const #436 = Asciz	(Lscala/collection/TraversableLike;Ljava/lang/Object;Lscala/Function2;)Ljava/lang/Object;;
const #437 = NameAndType	#434:#436;//  $colon$bslash:(Lscala/collection/TraversableLike;Ljava/lang/Object;Lscala/Function2;)Ljava/lang/Object;
const #438 = Method	#104.#437;	//  scala/collection/TraversableLike$class.$colon$bslash:(Lscala/collection/TraversableLike;Ljava/lang/Object;Lscala/Function2;)Ljava/lang/Object;
const #439 = Asciz	z;
const #440 = Asciz	$div$colon;
const #441 = NameAndType	#440:#436;//  $div$colon:(Lscala/collection/TraversableLike;Ljava/lang/Object;Lscala/Function2;)Ljava/lang/Object;
const #442 = Method	#104.#441;	//  scala/collection/TraversableLike$class.$div$colon:(Lscala/collection/TraversableLike;Ljava/lang/Object;Lscala/Function2;)Ljava/lang/Object;
const #443 = Asciz	count;
const #444 = Asciz	(Lscala/Function1;)I;
const #445 = Asciz	(Lscala/collection/TraversableLike;Lscala/Function1;)I;
const #446 = NameAndType	#443:#445;//  count:(Lscala/collection/TraversableLike;Lscala/Function1;)I
const #447 = Method	#104.#446;	//  scala/collection/TraversableLike$class.count:(Lscala/collection/TraversableLike;Lscala/Function1;)I
const #448 = Asciz	groupBy;
const #449 = Asciz	(Lscala/Function1;)Lscala/collection/Map;;
const #450 = Asciz	(Lscala/collection/TraversableLike;Lscala/Function1;)Lscala/collection/Map;;
const #451 = NameAndType	#448:#450;//  groupBy:(Lscala/collection/TraversableLike;Lscala/Function1;)Lscala/collection/Map;
const #452 = Method	#104.#451;	//  scala/collection/TraversableLike$class.groupBy:(Lscala/collection/TraversableLike;Lscala/Function1;)Lscala/collection/Map;
const #453 = Asciz	partition;
const #454 = Asciz	(Lscala/Function1;)Lscala/Tuple2;;
const #455 = Asciz	(Lscala/collection/TraversableLike;Lscala/Function1;)Lscala/Tuple2;;
const #456 = NameAndType	#453:#455;//  partition:(Lscala/collection/TraversableLike;Lscala/Function1;)Lscala/Tuple2;
const #457 = Method	#104.#456;	//  scala/collection/TraversableLike$class.partition:(Lscala/collection/TraversableLike;Lscala/Function1;)Lscala/Tuple2;
const #458 = Asciz	partialMap;
const #459 = Asciz	(Lscala/PartialFunction;Lscala/collection/generic/CanBuildFrom;)Ljava/lang/Object;;
const #460 = Asciz	(Lscala/collection/TraversableLike;Lscala/PartialFunction;Lscala/collection/generic/CanBuildFrom;)Ljava/lang/Object;;
const #461 = NameAndType	#458:#460;//  partialMap:(Lscala/collection/TraversableLike;Lscala/PartialFunction;Lscala/collection/generic/CanBuildFrom;)Ljava/lang/Object;
const #462 = Method	#104.#461;	//  scala/collection/TraversableLike$class.partialMap:(Lscala/collection/TraversableLike;Lscala/PartialFunction;Lscala/collection/generic/CanBuildFrom;)Ljava/lang/Object;
const #463 = Asciz	pf;
const #464 = Asciz	Lscala/PartialFunction;;
const #465 = Asciz	bf;
const #466 = Asciz	Lscala/collection/generic/CanBuildFrom;;
const #467 = Asciz	filterNot;
const #468 = Asciz	(Lscala/Function1;)Ljava/lang/Object;;
const #469 = Asciz	(Lscala/collection/TraversableLike;Lscala/Function1;)Ljava/lang/Object;;
const #470 = NameAndType	#467:#469;//  filterNot:(Lscala/collection/TraversableLike;Lscala/Function1;)Ljava/lang/Object;
const #471 = Method	#104.#470;	//  scala/collection/TraversableLike$class.filterNot:(Lscala/collection/TraversableLike;Lscala/Function1;)Ljava/lang/Object;
const #472 = Asciz	filter;
const #473 = NameAndType	#472:#469;//  filter:(Lscala/collection/TraversableLike;Lscala/Function1;)Ljava/lang/Object;
const #474 = Method	#104.#473;	//  scala/collection/TraversableLike$class.filter:(Lscala/collection/TraversableLike;Lscala/Function1;)Ljava/lang/Object;
const #475 = Asciz	flatMap;
const #476 = Asciz	(Lscala/Function1;Lscala/collection/generic/CanBuildFrom;)Ljava/lang/Object;;
const #477 = Asciz	(Lscala/collection/TraversableLike;Lscala/Function1;Lscala/collection/generic/CanBuildFrom;)Ljava/lang/Object;;
const #478 = NameAndType	#475:#477;//  flatMap:(Lscala/collection/TraversableLike;Lscala/Function1;Lscala/collection/generic/CanBuildFrom;)Ljava/lang/Object;
const #479 = Method	#104.#478;	//  scala/collection/TraversableLike$class.flatMap:(Lscala/collection/TraversableLike;Lscala/Function1;Lscala/collection/generic/CanBuildFrom;)Ljava/lang/Object;
const #480 = Asciz	map;
const #481 = NameAndType	#480:#477;//  map:(Lscala/collection/TraversableLike;Lscala/Function1;Lscala/collection/generic/CanBuildFrom;)Ljava/lang/Object;
const #482 = Method	#104.#481;	//  scala/collection/TraversableLike$class.map:(Lscala/collection/TraversableLike;Lscala/Function1;Lscala/collection/generic/CanBuildFrom;)Ljava/lang/Object;
const #483 = Asciz	$plus$plus;
const #484 = Asciz	(Lscala/collection/Iterator;Lscala/collection/generic/CanBuildFrom;)Ljava/lang/Object;;
const #485 = Asciz	(Lscala/collection/TraversableLike;Lscala/collection/Iterator;Lscala/collection/generic/CanBuildFrom;)Ljava/lang/Object;;
const #486 = NameAndType	#483:#485;//  $plus$plus:(Lscala/collection/TraversableLike;Lscala/collection/Iterator;Lscala/collection/generic/CanBuildFrom;)Ljava/lang/Object;
const #487 = Method	#104.#486;	//  scala/collection/TraversableLike$class.$plus$plus:(Lscala/collection/TraversableLike;Lscala/collection/Iterator;Lscala/collection/generic/CanBuildFrom;)Ljava/lang/Object;
const #488 = Asciz	that;
const #489 = Asciz	Lscala/collection/Iterator;;
const #490 = Asciz	(Lscala/collection/Traversable;Lscala/collection/generic/CanBuildFrom;)Ljava/lang/Object;;
const #491 = Asciz	(Lscala/collection/TraversableLike;Lscala/collection/Traversable;Lscala/collection/generic/CanBuildFrom;)Ljava/lang/Object;;
const #492 = NameAndType	#483:#491;//  $plus$plus:(Lscala/collection/TraversableLike;Lscala/collection/Traversable;Lscala/collection/generic/CanBuildFrom;)Ljava/lang/Object;
const #493 = Method	#104.#492;	//  scala/collection/TraversableLike$class.$plus$plus:(Lscala/collection/TraversableLike;Lscala/collection/Traversable;Lscala/collection/generic/CanBuildFrom;)Ljava/lang/Object;
const #494 = Asciz	Lscala/collection/Traversable;;
const #495 = Asciz	hasDefiniteSize;
const #496 = Asciz	()Z;
const #497 = Asciz	(Lscala/collection/TraversableLike;)Z;
const #498 = NameAndType	#495:#497;//  hasDefiniteSize:(Lscala/collection/TraversableLike;)Z
const #499 = Method	#104.#498;	//  scala/collection/TraversableLike$class.hasDefiniteSize:(Lscala/collection/TraversableLike;)Z
const #500 = Asciz	nonEmpty;
const #501 = NameAndType	#500:#497;//  nonEmpty:(Lscala/collection/TraversableLike;)Z
const #502 = Method	#104.#501;	//  scala/collection/TraversableLike$class.nonEmpty:(Lscala/collection/TraversableLike;)Z
const #503 = Asciz	()Ljava/lang/Object;;
const #504 = Asciz	(Lscala/collection/TraversableLike;)Ljava/lang/Object;;
const #505 = NameAndType	#216:#504;//  repr:(Lscala/collection/TraversableLike;)Ljava/lang/Object;
const #506 = Method	#104.#505;	//  scala/collection/TraversableLike$class.repr:(Lscala/collection/TraversableLike;)Ljava/lang/Object;
const #507 = Asciz	transpose;
const #508 = Asciz	(Lscala/Function1;)Lscala/collection/Traversable;;
const #509 = Asciz	(Lscala/collection/generic/GenericTraversableTemplate;Lscala/Function1;)Lscala/collection/Traversable;;
const #510 = NameAndType	#507:#509;//  transpose:(Lscala/collection/generic/GenericTraversableTemplate;Lscala/Function1;)Lscala/collection/Traversable;
const #511 = Method	#110.#510;	//  scala/collection/generic/GenericTraversableTemplate$class.transpose:(Lscala/collection/generic/GenericTraversableTemplate;Lscala/Function1;)Lscala/collection/Traversable;
const #512 = Asciz	asTraversable;
const #513 = Asciz	flatten;
const #514 = NameAndType	#513:#509;//  flatten:(Lscala/collection/generic/GenericTraversableTemplate;Lscala/Function1;)Lscala/collection/Traversable;
const #515 = Method	#110.#514;	//  scala/collection/generic/GenericTraversableTemplate$class.flatten:(Lscala/collection/generic/GenericTraversableTemplate;Lscala/Function1;)Lscala/collection/Traversable;
const #516 = Asciz	unzip;
const #517 = Asciz	(Lscala/collection/generic/GenericTraversableTemplate;Lscala/Function1;)Lscala/Tuple2;;
const #518 = NameAndType	#516:#517;//  unzip:(Lscala/collection/generic/GenericTraversableTemplate;Lscala/Function1;)Lscala/Tuple2;
const #519 = Method	#110.#518;	//  scala/collection/generic/GenericTraversableTemplate$class.unzip:(Lscala/collection/generic/GenericTraversableTemplate;Lscala/Function1;)Lscala/Tuple2;
const #520 = Asciz	asPair;
const #521 = Asciz	genericBuilder;
const #522 = Asciz	()Lscala/collection/mutable/Builder;;
const #523 = Asciz	(Lscala/collection/generic/GenericTraversableTemplate;)Lscala/collection/mutable/Builder;;
const #524 = NameAndType	#521:#523;//  genericBuilder:(Lscala/collection/generic/GenericTraversableTemplate;)Lscala/collection/mutable/Builder;
const #525 = Method	#110.#524;	//  scala/collection/generic/GenericTraversableTemplate$class.genericBuilder:(Lscala/collection/generic/GenericTraversableTemplate;)Lscala/collection/mutable/Builder;
const #526 = Asciz	newBuilder;
const #527 = NameAndType	#526:#523;//  newBuilder:(Lscala/collection/generic/GenericTraversableTemplate;)Lscala/collection/mutable/Builder;
const #528 = Method	#110.#527;	//  scala/collection/generic/GenericTraversableTemplate$class.newBuilder:(Lscala/collection/generic/GenericTraversableTemplate;)Lscala/collection/mutable/Builder;
const #529 = Asciz	firstOption;
const #530 = Asciz	(Lscala/collection/IterableLike;)Lscala/Option;;
const #531 = NameAndType	#529:#530;//  firstOption:(Lscala/collection/IterableLike;)Lscala/Option;
const #532 = Method	#125.#531;	//  scala/collection/IterableLike$class.firstOption:(Lscala/collection/IterableLike;)Lscala/Option;
const #533 = Asciz	Deprecated;
const #534 = Asciz	first;
const #535 = Asciz	(Lscala/collection/IterableLike;)Ljava/lang/Object;;
const #536 = NameAndType	#534:#535;//  first:(Lscala/collection/IterableLike;)Ljava/lang/Object;
const #537 = Method	#125.#536;	//  scala/collection/IterableLike$class.first:(Lscala/collection/IterableLike;)Ljava/lang/Object;
const #538 = Asciz	canEqual;
const #539 = Asciz	(Lscala/collection/IterableLike;Ljava/lang/Object;)Z;
const #540 = NameAndType	#538:#539;//  canEqual:(Lscala/collection/IterableLike;Ljava/lang/Object;)Z
const #541 = Method	#125.#540;	//  scala/collection/IterableLike$class.canEqual:(Lscala/collection/IterableLike;Ljava/lang/Object;)Z
const #542 = Asciz	toStream;
const #543 = Asciz	()Lscala/collection/immutable/Stream;;
const #544 = Asciz	(Lscala/collection/IterableLike;)Lscala/collection/immutable/Stream;;
const #545 = NameAndType	#542:#544;//  toStream:(Lscala/collection/IterableLike;)Lscala/collection/immutable/Stream;
const #546 = Method	#125.#545;	//  scala/collection/IterableLike$class.toStream:(Lscala/collection/IterableLike;)Lscala/collection/immutable/Stream;
const #547 = Asciz	zipAll;
const #548 = Asciz	(Lscala/collection/Iterable;Ljava/lang/Object;Ljava/lang/Object;Lscala/collection/generic/CanBuildFrom;)Ljava/lang/Object;;
const #549 = Asciz	(Lscala/collection/IterableLike;Lscala/collection/Iterable;Ljava/lang/Object;Ljava/lang/Object;Lscala/collection/generic/CanBuildFrom;)Ljava/lang/Object;;
const #550 = NameAndType	#547:#549;//  zipAll:(Lscala/collection/IterableLike;Lscala/collection/Iterable;Ljava/lang/Object;Ljava/lang/Object;Lscala/collection/generic/CanBuildFrom;)Ljava/lang/Object;
const #551 = Method	#125.#550;	//  scala/collection/IterableLike$class.zipAll:(Lscala/collection/IterableLike;Lscala/collection/Iterable;Ljava/lang/Object;Ljava/lang/Object;Lscala/collection/generic/CanBuildFrom;)Ljava/lang/Object;
const #552 = Asciz	Lscala/collection/Iterable;;
const #553 = Asciz	thisElem;
const #554 = Asciz	thatElem;
const #555 = Asciz	toIterable;
const #556 = Asciz	(Lscala/collection/IterableLike;)Lscala/collection/Iterable;;
const #557 = NameAndType	#555:#556;//  toIterable:(Lscala/collection/IterableLike;)Lscala/collection/Iterable;
const #558 = Method	#125.#557;	//  scala/collection/IterableLike$class.toIterable:(Lscala/collection/IterableLike;)Lscala/collection/Iterable;
const #559 = Asciz	elements;
const #560 = Asciz	()Lscala/collection/Iterator;;
const #561 = Asciz	(Lscala/collection/IterableLike;)Lscala/collection/Iterator;;
const #562 = NameAndType	#559:#561;//  elements:(Lscala/collection/IterableLike;)Lscala/collection/Iterator;
const #563 = Method	#125.#562;	//  scala/collection/IterableLike$class.elements:(Lscala/collection/IterableLike;)Lscala/collection/Iterator;
const #564 = Asciz	compose;
const #565 = Asciz	(Lscala/Function1;Lscala/Function1;)Lscala/Function1;;
const #566 = NameAndType	#564:#565;//  compose:(Lscala/Function1;Lscala/Function1;)Lscala/Function1;
const #567 = Method	#140.#566;	//  scala/Function1$class.compose:(Lscala/Function1;Lscala/Function1;)Lscala/Function1;
const #568 = Asciz	lift;
const #569 = Asciz	()Lscala/Function1;;
const #570 = Asciz	(Lscala/PartialFunction;)Lscala/Function1;;
const #571 = NameAndType	#568:#570;//  lift:(Lscala/PartialFunction;)Lscala/Function1;
const #572 = Method	#145.#571;	//  scala/PartialFunction$class.lift:(Lscala/PartialFunction;)Lscala/Function1;
const #573 = Asciz	(Lscala/PartialFunction;Lscala/Function1;)Lscala/PartialFunction;;
const #574 = NameAndType	#238:#573;//  andThen:(Lscala/PartialFunction;Lscala/Function1;)Lscala/PartialFunction;
const #575 = Method	#145.#574;	//  scala/PartialFunction$class.andThen:(Lscala/PartialFunction;Lscala/Function1;)Lscala/PartialFunction;
const #576 = Asciz	k;
const #577 = Asciz	orElse;
const #578 = Asciz	(Lscala/PartialFunction;)Lscala/PartialFunction;;
const #579 = Asciz	(Lscala/PartialFunction;Lscala/PartialFunction;)Lscala/PartialFunction;;
const #580 = NameAndType	#577:#579;//  orElse:(Lscala/PartialFunction;Lscala/PartialFunction;)Lscala/PartialFunction;
const #581 = Method	#145.#580;	//  scala/PartialFunction$class.orElse:(Lscala/PartialFunction;Lscala/PartialFunction;)Lscala/PartialFunction;
const #582 = Asciz	projection;
const #583 = Asciz	(Lscala/collection/SeqLike;)Ljava/lang/Object;;
const #584 = NameAndType	#582:#583;//  projection:(Lscala/collection/SeqLike;)Ljava/lang/Object;
const #585 = Method	#150.#584;	//  scala/collection/SeqLike$class.projection:(Lscala/collection/SeqLike;)Ljava/lang/Object;
const #586 = Asciz	equalsWith;
const #587 = Asciz	(Lscala/collection/Seq;Lscala/Function2;)Z;
const #588 = Asciz	(Lscala/collection/SeqLike;Lscala/collection/Seq;Lscala/Function2;)Z;
const #589 = NameAndType	#586:#588;//  equalsWith:(Lscala/collection/SeqLike;Lscala/collection/Seq;Lscala/Function2;)Z
const #590 = Method	#150.#589;	//  scala/collection/SeqLike$class.equalsWith:(Lscala/collection/SeqLike;Lscala/collection/Seq;Lscala/Function2;)Z
const #591 = Asciz	Lscala/collection/Seq;;
const #592 = Asciz	findLastIndexOf;
const #593 = Asciz	(Lscala/collection/SeqLike;Lscala/Function1;)I;
const #594 = NameAndType	#592:#593;//  findLastIndexOf:(Lscala/collection/SeqLike;Lscala/Function1;)I
const #595 = Method	#150.#594;	//  scala/collection/SeqLike$class.findLastIndexOf:(Lscala/collection/SeqLike;Lscala/Function1;)I
const #596 = Asciz	(Lscala/collection/SeqLike;)Ljava/lang/String;;
const #597 = NameAndType	#308:#596;//  toString:(Lscala/collection/SeqLike;)Ljava/lang/String;
const #598 = Method	#150.#597;	//  scala/collection/SeqLike$class.toString:(Lscala/collection/SeqLike;)Ljava/lang/String;
const #599 = Asciz	equals;
const #600 = Asciz	(Lscala/collection/SeqLike;Ljava/lang/Object;)Z;
const #601 = NameAndType	#599:#600;//  equals:(Lscala/collection/SeqLike;Ljava/lang/Object;)Z
const #602 = Method	#150.#601;	//  scala/collection/SeqLike$class.equals:(Lscala/collection/SeqLike;Ljava/lang/Object;)Z
const #603 = Asciz	hashCode;
const #604 = Asciz	(Lscala/collection/SeqLike;)I;
const #605 = NameAndType	#603:#604;//  hashCode:(Lscala/collection/SeqLike;)I
const #606 = Method	#150.#605;	//  scala/collection/SeqLike$class.hashCode:(Lscala/collection/SeqLike;)I
const #607 = Asciz	indices;
const #608 = Asciz	()Lscala/collection/immutable/Range;;
const #609 = Asciz	(Lscala/collection/SeqLike;)Lscala/collection/immutable/Range;;
const #610 = NameAndType	#607:#609;//  indices:(Lscala/collection/SeqLike;)Lscala/collection/immutable/Range;
const #611 = Method	#150.#610;	//  scala/collection/SeqLike$class.indices:(Lscala/collection/SeqLike;)Lscala/collection/immutable/Range;
const #612 = Asciz	toSeq;
const #613 = Asciz	(Lscala/collection/SeqLike;)Lscala/collection/Seq;;
const #614 = NameAndType	#612:#613;//  toSeq:(Lscala/collection/SeqLike;)Lscala/collection/Seq;
const #615 = Method	#150.#614;	//  scala/collection/SeqLike$class.toSeq:(Lscala/collection/SeqLike;)Lscala/collection/Seq;
const #616 = Asciz	sortBy;
const #617 = Asciz	(Lscala/Function1;Lscala/math/Ordering;)Ljava/lang/Object;;
const #618 = Asciz	(Lscala/collection/SeqLike;Lscala/Function1;Lscala/math/Ordering;)Ljava/lang/Object;;
const #619 = NameAndType	#616:#618;//  sortBy:(Lscala/collection/SeqLike;Lscala/Function1;Lscala/math/Ordering;)Ljava/lang/Object;
const #620 = Method	#150.#619;	//  scala/collection/SeqLike$class.sortBy:(Lscala/collection/SeqLike;Lscala/Function1;Lscala/math/Ordering;)Ljava/lang/Object;
const #621 = Asciz	ord;
const #622 = Asciz	sortWith;
const #623 = Asciz	(Lscala/collection/SeqLike;Lscala/math/Ordering;)Ljava/lang/Object;;
const #624 = NameAndType	#622:#623;//  sortWith:(Lscala/collection/SeqLike;Lscala/math/Ordering;)Ljava/lang/Object;
const #625 = Method	#150.#624;	//  scala/collection/SeqLike$class.sortWith:(Lscala/collection/SeqLike;Lscala/math/Ordering;)Ljava/lang/Object;
const #626 = Asciz	(Lscala/Function2;)Ljava/lang/Object;;
const #627 = Asciz	(Lscala/collection/SeqLike;Lscala/Function2;)Ljava/lang/Object;;
const #628 = NameAndType	#622:#627;//  sortWith:(Lscala/collection/SeqLike;Lscala/Function2;)Ljava/lang/Object;
const #629 = Method	#150.#628;	//  scala/collection/SeqLike$class.sortWith:(Lscala/collection/SeqLike;Lscala/Function2;)Ljava/lang/Object;
const #630 = Asciz	lt;
const #631 = Asciz	corresponds;
const #632 = NameAndType	#631:#588;//  corresponds:(Lscala/collection/SeqLike;Lscala/collection/Seq;Lscala/Function2;)Z
const #633 = Method	#150.#632;	//  scala/collection/SeqLike$class.corresponds:(Lscala/collection/SeqLike;Lscala/collection/Seq;Lscala/Function2;)Z
const #634 = Asciz	padTo;
const #635 = Asciz	(ILjava/lang/Object;Lscala/collection/generic/CanBuildFrom;)Ljava/lang/Object;;
const #636 = Asciz	(Lscala/collection/SeqLike;ILjava/lang/Object;Lscala/collection/generic/CanBuildFrom;)Ljava/lang/Object;;
const #637 = NameAndType	#634:#636;//  padTo:(Lscala/collection/SeqLike;ILjava/lang/Object;Lscala/collection/generic/CanBuildFrom;)Ljava/lang/Object;
const #638 = Method	#150.#637;	//  scala/collection/SeqLike$class.padTo:(Lscala/collection/SeqLike;ILjava/lang/Object;Lscala/collection/generic/CanBuildFrom;)Ljava/lang/Object;
const #639 = Asciz	$colon$plus;
const #640 = Asciz	(Ljava/lang/Object;Lscala/collection/generic/CanBuildFrom;)Ljava/lang/Object;;
const #641 = Asciz	(Lscala/collection/SeqLike;Ljava/lang/Object;Lscala/collection/generic/CanBuildFrom;)Ljava/lang/Object;;
const #642 = NameAndType	#639:#641;//  $colon$plus:(Lscala/collection/SeqLike;Ljava/lang/Object;Lscala/collection/generic/CanBuildFrom;)Ljava/lang/Object;
const #643 = Method	#150.#642;	//  scala/collection/SeqLike$class.$colon$plus:(Lscala/collection/SeqLike;Ljava/lang/Object;Lscala/collection/generic/CanBuildFrom;)Ljava/lang/Object;
const #644 = Asciz	$plus$colon;
const #645 = NameAndType	#644:#641;//  $plus$colon:(Lscala/collection/SeqLike;Ljava/lang/Object;Lscala/collection/generic/CanBuildFrom;)Ljava/lang/Object;
const #646 = Method	#150.#645;	//  scala/collection/SeqLike$class.$plus$colon:(Lscala/collection/SeqLike;Ljava/lang/Object;Lscala/collection/generic/CanBuildFrom;)Ljava/lang/Object;
const #647 = Asciz	updated;
const #648 = NameAndType	#647:#636;//  updated:(Lscala/collection/SeqLike;ILjava/lang/Object;Lscala/collection/generic/CanBuildFrom;)Ljava/lang/Object;
const #649 = Method	#150.#648;	//  scala/collection/SeqLike$class.updated:(Lscala/collection/SeqLike;ILjava/lang/Object;Lscala/collection/generic/CanBuildFrom;)Ljava/lang/Object;
const #650 = Asciz	index;
const #651 = Asciz	patch;
const #652 = Asciz	(ILscala/collection/Seq;ILscala/collection/generic/CanBuildFrom;)Ljava/lang/Object;;
const #653 = Asciz	(Lscala/collection/SeqLike;ILscala/collection/Seq;ILscala/collection/generic/CanBuildFrom;)Ljava/lang/Object;;
const #654 = NameAndType	#651:#653;//  patch:(Lscala/collection/SeqLike;ILscala/collection/Seq;ILscala/collection/generic/CanBuildFrom;)Ljava/lang/Object;
const #655 = Method	#150.#654;	//  scala/collection/SeqLike$class.patch:(Lscala/collection/SeqLike;ILscala/collection/Seq;ILscala/collection/generic/CanBuildFrom;)Ljava/lang/Object;
const #656 = Asciz	replaced;
const #657 = Asciz	removeDuplicates;
const #658 = NameAndType	#657:#583;//  removeDuplicates:(Lscala/collection/SeqLike;)Ljava/lang/Object;
const #659 = Method	#150.#658;	//  scala/collection/SeqLike$class.removeDuplicates:(Lscala/collection/SeqLike;)Ljava/lang/Object;
const #660 = Asciz	intersect;
const #661 = Asciz	(Lscala/collection/Seq;)Ljava/lang/Object;;
const #662 = Asciz	(Lscala/collection/SeqLike;Lscala/collection/Seq;)Ljava/lang/Object;;
const #663 = NameAndType	#660:#662;//  intersect:(Lscala/collection/SeqLike;Lscala/collection/Seq;)Ljava/lang/Object;
const #664 = Method	#150.#663;	//  scala/collection/SeqLike$class.intersect:(Lscala/collection/SeqLike;Lscala/collection/Seq;)Ljava/lang/Object;
const #665 = Asciz	diff;
const #666 = NameAndType	#665:#662;//  diff:(Lscala/collection/SeqLike;Lscala/collection/Seq;)Ljava/lang/Object;
const #667 = Method	#150.#666;	//  scala/collection/SeqLike$class.diff:(Lscala/collection/SeqLike;Lscala/collection/Seq;)Ljava/lang/Object;
const #668 = Asciz	union;
const #669 = Asciz	(Lscala/collection/Seq;Lscala/collection/generic/CanBuildFrom;)Ljava/lang/Object;;
const #670 = Asciz	(Lscala/collection/SeqLike;Lscala/collection/Seq;Lscala/collection/generic/CanBuildFrom;)Ljava/lang/Object;;
const #671 = NameAndType	#668:#670;//  union:(Lscala/collection/SeqLike;Lscala/collection/Seq;Lscala/collection/generic/CanBuildFrom;)Ljava/lang/Object;
const #672 = Method	#150.#671;	//  scala/collection/SeqLike$class.union:(Lscala/collection/SeqLike;Lscala/collection/Seq;Lscala/collection/generic/CanBuildFrom;)Ljava/lang/Object;
const #673 = Asciz	contains;
const #674 = NameAndType	#673:#600;//  contains:(Lscala/collection/SeqLike;Ljava/lang/Object;)Z
const #675 = Method	#150.#674;	//  scala/collection/SeqLike$class.contains:(Lscala/collection/SeqLike;Ljava/lang/Object;)Z
const #676 = Asciz	containsSlice;
const #677 = Asciz	(Lscala/collection/Seq;)Z;
const #678 = Asciz	(Lscala/collection/SeqLike;Lscala/collection/Seq;)Z;
const #679 = NameAndType	#676:#678;//  containsSlice:(Lscala/collection/SeqLike;Lscala/collection/Seq;)Z
const #680 = Method	#150.#679;	//  scala/collection/SeqLike$class.containsSlice:(Lscala/collection/SeqLike;Lscala/collection/Seq;)Z
const #681 = Asciz	lastIndexOfSlice;
const #682 = Asciz	(Lscala/collection/Seq;I)I;
const #683 = Asciz	(Lscala/collection/SeqLike;Lscala/collection/Seq;I)I;
const #684 = NameAndType	#681:#683;//  lastIndexOfSlice:(Lscala/collection/SeqLike;Lscala/collection/Seq;I)I
const #685 = Method	#150.#684;	//  scala/collection/SeqLike$class.lastIndexOfSlice:(Lscala/collection/SeqLike;Lscala/collection/Seq;I)I
const #686 = Asciz	(Lscala/collection/Seq;)I;
const #687 = Asciz	(Lscala/collection/SeqLike;Lscala/collection/Seq;)I;
const #688 = NameAndType	#681:#687;//  lastIndexOfSlice:(Lscala/collection/SeqLike;Lscala/collection/Seq;)I
const #689 = Method	#150.#688;	//  scala/collection/SeqLike$class.lastIndexOfSlice:(Lscala/collection/SeqLike;Lscala/collection/Seq;)I
const #690 = Asciz	indexOfSlice;
const #691 = NameAndType	#690:#683;//  indexOfSlice:(Lscala/collection/SeqLike;Lscala/collection/Seq;I)I
const #692 = Method	#150.#691;	//  scala/collection/SeqLike$class.indexOfSlice:(Lscala/collection/SeqLike;Lscala/collection/Seq;I)I
const #693 = NameAndType	#690:#687;//  indexOfSlice:(Lscala/collection/SeqLike;Lscala/collection/Seq;)I
const #694 = Method	#150.#693;	//  scala/collection/SeqLike$class.indexOfSlice:(Lscala/collection/SeqLike;Lscala/collection/Seq;)I
const #695 = Asciz	startsWith;
const #696 = NameAndType	#695:#678;//  startsWith:(Lscala/collection/SeqLike;Lscala/collection/Seq;)Z
const #697 = Method	#150.#696;	//  scala/collection/SeqLike$class.startsWith:(Lscala/collection/SeqLike;Lscala/collection/Seq;)Z
const #698 = Asciz	reversedElements;
const #699 = Asciz	(Lscala/collection/SeqLike;)Lscala/collection/Iterator;;
const #700 = NameAndType	#698:#699;//  reversedElements:(Lscala/collection/SeqLike;)Lscala/collection/Iterator;
const #701 = Method	#150.#700;	//  scala/collection/SeqLike$class.reversedElements:(Lscala/collection/SeqLike;)Lscala/collection/Iterator;
const #702 = Asciz	reverseMap;
const #703 = Asciz	(Lscala/collection/SeqLike;Lscala/Function1;Lscala/collection/generic/CanBuildFrom;)Ljava/lang/Object;;
const #704 = NameAndType	#702:#703;//  reverseMap:(Lscala/collection/SeqLike;Lscala/Function1;Lscala/collection/generic/CanBuildFrom;)Ljava/lang/Object;
const #705 = Method	#150.#704;	//  scala/collection/SeqLike$class.reverseMap:(Lscala/collection/SeqLike;Lscala/Function1;Lscala/collection/generic/CanBuildFrom;)Ljava/lang/Object;
const #706 = Asciz	lastIndexWhere;
const #707 = NameAndType	#706:#593;//  lastIndexWhere:(Lscala/collection/SeqLike;Lscala/Function1;)I
const #708 = Method	#150.#707;	//  scala/collection/SeqLike$class.lastIndexWhere:(Lscala/collection/SeqLike;Lscala/Function1;)I
const #709 = Asciz	lastIndexOf;
const #710 = Asciz	(Ljava/lang/Object;I)I;
const #711 = Asciz	(Lscala/collection/SeqLike;Ljava/lang/Object;I)I;
const #712 = NameAndType	#709:#711;//  lastIndexOf:(Lscala/collection/SeqLike;Ljava/lang/Object;I)I
const #713 = Method	#150.#712;	//  scala/collection/SeqLike$class.lastIndexOf:(Lscala/collection/SeqLike;Ljava/lang/Object;I)I
const #714 = Asciz	(Lscala/collection/SeqLike;Ljava/lang/Object;)I;
const #715 = NameAndType	#709:#714;//  lastIndexOf:(Lscala/collection/SeqLike;Ljava/lang/Object;)I
const #716 = Method	#150.#715;	//  scala/collection/SeqLike$class.lastIndexOf:(Lscala/collection/SeqLike;Ljava/lang/Object;)I
const #717 = Asciz	indexOf;
const #718 = NameAndType	#717:#711;//  indexOf:(Lscala/collection/SeqLike;Ljava/lang/Object;I)I
const #719 = Method	#150.#718;	//  scala/collection/SeqLike$class.indexOf:(Lscala/collection/SeqLike;Ljava/lang/Object;I)I
const #720 = NameAndType	#717:#714;//  indexOf:(Lscala/collection/SeqLike;Ljava/lang/Object;)I
const #721 = Method	#150.#720;	//  scala/collection/SeqLike$class.indexOf:(Lscala/collection/SeqLike;Ljava/lang/Object;)I
const #722 = Asciz	findIndexOf;
const #723 = NameAndType	#722:#593;//  findIndexOf:(Lscala/collection/SeqLike;Lscala/Function1;)I
const #724 = Method	#150.#723;	//  scala/collection/SeqLike$class.findIndexOf:(Lscala/collection/SeqLike;Lscala/Function1;)I
const #725 = Asciz	indexWhere;
const #726 = NameAndType	#725:#593;//  indexWhere:(Lscala/collection/SeqLike;Lscala/Function1;)I
const #727 = Method	#150.#726;	//  scala/collection/SeqLike$class.indexWhere:(Lscala/collection/SeqLike;Lscala/Function1;)I
const #728 = Asciz	prefixLength;
const #729 = NameAndType	#728:#593;//  prefixLength:(Lscala/collection/SeqLike;Lscala/Function1;)I
const #730 = Method	#150.#729;	//  scala/collection/SeqLike$class.prefixLength:(Lscala/collection/SeqLike;Lscala/Function1;)I
const #731 = Asciz	(Lscala/collection/SeqLike;I)Z;
const #732 = NameAndType	#230:#731;//  isDefinedAt:(Lscala/collection/SeqLike;I)Z
const #733 = Method	#150.#732;	//  scala/collection/SeqLike$class.isDefinedAt:(Lscala/collection/SeqLike;I)Z
const #734 = Asciz	size;
const #735 = NameAndType	#734:#604;//  size:(Lscala/collection/SeqLike;)I
const #736 = Method	#150.#735;	//  scala/collection/SeqLike$class.size:(Lscala/collection/SeqLike;)I
const #737 = Asciz	endsWith;
const #738 = Asciz	(Lscala/collection/IndexedSeqLike;Lscala/collection/Seq;)Z;
const #739 = NameAndType	#737:#738;//  endsWith:(Lscala/collection/IndexedSeqLike;Lscala/collection/Seq;)Z
const #740 = Method	#165.#739;	//  scala/collection/IndexedSeqLike$class.endsWith:(Lscala/collection/IndexedSeqLike;Lscala/collection/Seq;)Z
const #741 = Asciz	(Lscala/collection/Seq;I)Z;
const #742 = Asciz	(Lscala/collection/IndexedSeqLike;Lscala/collection/Seq;I)Z;
const #743 = NameAndType	#695:#742;//  startsWith:(Lscala/collection/IndexedSeqLike;Lscala/collection/Seq;I)Z
const #744 = Method	#165.#743;	//  scala/collection/IndexedSeqLike$class.startsWith:(Lscala/collection/IndexedSeqLike;Lscala/collection/Seq;I)Z
const #745 = Asciz	offset;
const #746 = Asciz	reverseIterator;
const #747 = Asciz	(Lscala/collection/IndexedSeqLike;)Lscala/collection/Iterator;;
const #748 = NameAndType	#746:#747;//  reverseIterator:(Lscala/collection/IndexedSeqLike;)Lscala/collection/Iterator;
const #749 = Method	#165.#748;	//  scala/collection/IndexedSeqLike$class.reverseIterator:(Lscala/collection/IndexedSeqLike;)Lscala/collection/Iterator;
const #750 = Asciz	reverse;
const #751 = Asciz	(Lscala/collection/IndexedSeqLike;)Ljava/lang/Object;;
const #752 = NameAndType	#750:#751;//  reverse:(Lscala/collection/IndexedSeqLike;)Ljava/lang/Object;
const #753 = Method	#165.#752;	//  scala/collection/IndexedSeqLike$class.reverse:(Lscala/collection/IndexedSeqLike;)Ljava/lang/Object;
const #754 = Asciz	(Lscala/Function1;I)I;
const #755 = Asciz	(Lscala/collection/IndexedSeqLike;Lscala/Function1;I)I;
const #756 = NameAndType	#706:#755;//  lastIndexWhere:(Lscala/collection/IndexedSeqLike;Lscala/Function1;I)I
const #757 = Method	#165.#756;	//  scala/collection/IndexedSeqLike$class.lastIndexWhere:(Lscala/collection/IndexedSeqLike;Lscala/Function1;I)I
const #758 = NameAndType	#725:#755;//  indexWhere:(Lscala/collection/IndexedSeqLike;Lscala/Function1;I)I
const #759 = Method	#165.#758;	//  scala/collection/IndexedSeqLike$class.indexWhere:(Lscala/collection/IndexedSeqLike;Lscala/Function1;I)I
const #760 = Asciz	segmentLength;
const #761 = NameAndType	#760:#755;//  segmentLength:(Lscala/collection/IndexedSeqLike;Lscala/Function1;I)I
const #762 = Method	#165.#761;	//  scala/collection/IndexedSeqLike$class.segmentLength:(Lscala/collection/IndexedSeqLike;Lscala/Function1;I)I
const #763 = Asciz	lengthCompare;
const #764 = Asciz	(Lscala/collection/IndexedSeqLike;I)I;
const #765 = NameAndType	#763:#764;//  lengthCompare:(Lscala/collection/IndexedSeqLike;I)I
const #766 = Method	#165.#765;	//  scala/collection/IndexedSeqLike$class.lengthCompare:(Lscala/collection/IndexedSeqLike;I)I
const #767 = Asciz	sameElements;
const #768 = Asciz	(Lscala/collection/Iterable;)Z;
const #769 = Asciz	(Lscala/collection/IndexedSeqLike;Lscala/collection/Iterable;)Z;
const #770 = NameAndType	#767:#769;//  sameElements:(Lscala/collection/IndexedSeqLike;Lscala/collection/Iterable;)Z
const #771 = Method	#165.#770;	//  scala/collection/IndexedSeqLike$class.sameElements:(Lscala/collection/IndexedSeqLike;Lscala/collection/Iterable;)Z
const #772 = Asciz	span;
const #773 = Asciz	(Lscala/collection/IndexedSeqLike;Lscala/Function1;)Lscala/Tuple2;;
const #774 = NameAndType	#772:#773;//  span:(Lscala/collection/IndexedSeqLike;Lscala/Function1;)Lscala/Tuple2;
const #775 = Method	#165.#774;	//  scala/collection/IndexedSeqLike$class.span:(Lscala/collection/IndexedSeqLike;Lscala/Function1;)Lscala/Tuple2;
const #776 = Asciz	dropWhile;
const #777 = Asciz	(Lscala/collection/IndexedSeqLike;Lscala/Function1;)Ljava/lang/Object;;
const #778 = NameAndType	#776:#777;//  dropWhile:(Lscala/collection/IndexedSeqLike;Lscala/Function1;)Ljava/lang/Object;
const #779 = Method	#165.#778;	//  scala/collection/IndexedSeqLike$class.dropWhile:(Lscala/collection/IndexedSeqLike;Lscala/Function1;)Ljava/lang/Object;
const #780 = Asciz	takeWhile;
const #781 = NameAndType	#780:#777;//  takeWhile:(Lscala/collection/IndexedSeqLike;Lscala/Function1;)Ljava/lang/Object;
const #782 = Method	#165.#781;	//  scala/collection/IndexedSeqLike$class.takeWhile:(Lscala/collection/IndexedSeqLike;Lscala/Function1;)Ljava/lang/Object;
const #783 = Asciz	splitAt;
const #784 = Asciz	(I)Lscala/Tuple2;;
const #785 = Asciz	(Lscala/collection/IndexedSeqLike;I)Lscala/Tuple2;;
const #786 = NameAndType	#783:#785;//  splitAt:(Lscala/collection/IndexedSeqLike;I)Lscala/Tuple2;
const #787 = Method	#165.#786;	//  scala/collection/IndexedSeqLike$class.splitAt:(Lscala/collection/IndexedSeqLike;I)Lscala/Tuple2;
const #788 = Asciz	n;
const #789 = Asciz	dropRight;
const #790 = Asciz	(Lscala/collection/IndexedSeqLike;I)Ljava/lang/Object;;
const #791 = NameAndType	#789:#790;//  dropRight:(Lscala/collection/IndexedSeqLike;I)Ljava/lang/Object;
const #792 = Method	#165.#791;	//  scala/collection/IndexedSeqLike$class.dropRight:(Lscala/collection/IndexedSeqLike;I)Ljava/lang/Object;
const #793 = Asciz	takeRight;
const #794 = NameAndType	#793:#790;//  takeRight:(Lscala/collection/IndexedSeqLike;I)Ljava/lang/Object;
const #795 = Method	#165.#794;	//  scala/collection/IndexedSeqLike$class.takeRight:(Lscala/collection/IndexedSeqLike;I)Ljava/lang/Object;
const #796 = Asciz	drop;
const #797 = NameAndType	#796:#790;//  drop:(Lscala/collection/IndexedSeqLike;I)Ljava/lang/Object;
const #798 = Method	#165.#797;	//  scala/collection/IndexedSeqLike$class.drop:(Lscala/collection/IndexedSeqLike;I)Ljava/lang/Object;
const #799 = Asciz	take;
const #800 = NameAndType	#799:#790;//  take:(Lscala/collection/IndexedSeqLike;I)Ljava/lang/Object;
const #801 = Method	#165.#800;	//  scala/collection/IndexedSeqLike$class.take:(Lscala/collection/IndexedSeqLike;I)Ljava/lang/Object;
const #802 = Asciz	init;
const #803 = NameAndType	#802:#751;//  init:(Lscala/collection/IndexedSeqLike;)Ljava/lang/Object;
const #804 = Method	#165.#803;	//  scala/collection/IndexedSeqLike$class.init:(Lscala/collection/IndexedSeqLike;)Ljava/lang/Object;
const #805 = Asciz	last;
const #806 = NameAndType	#805:#751;//  last:(Lscala/collection/IndexedSeqLike;)Ljava/lang/Object;
const #807 = Method	#165.#806;	//  scala/collection/IndexedSeqLike$class.last:(Lscala/collection/IndexedSeqLike;)Ljava/lang/Object;
const #808 = Asciz	tail;
const #809 = NameAndType	#808:#751;//  tail:(Lscala/collection/IndexedSeqLike;)Ljava/lang/Object;
const #810 = Method	#165.#809;	//  scala/collection/IndexedSeqLike$class.tail:(Lscala/collection/IndexedSeqLike;)Ljava/lang/Object;
const #811 = Asciz	head;
const #812 = NameAndType	#811:#751;//  head:(Lscala/collection/IndexedSeqLike;)Ljava/lang/Object;
const #813 = Method	#165.#812;	//  scala/collection/IndexedSeqLike$class.head:(Lscala/collection/IndexedSeqLike;)Ljava/lang/Object;
const #814 = Asciz	slice;
const #815 = Asciz	(II)Ljava/lang/Object;;
const #816 = Asciz	(Lscala/collection/IndexedSeqLike;II)Ljava/lang/Object;;
const #817 = NameAndType	#814:#816;//  slice:(Lscala/collection/IndexedSeqLike;II)Ljava/lang/Object;
const #818 = Method	#165.#817;	//  scala/collection/IndexedSeqLike$class.slice:(Lscala/collection/IndexedSeqLike;II)Ljava/lang/Object;
const #819 = Asciz	zipWithIndex;
const #820 = Asciz	(Lscala/collection/generic/CanBuildFrom;)Ljava/lang/Object;;
const #821 = Asciz	(Lscala/collection/IndexedSeqLike;Lscala/collection/generic/CanBuildFrom;)Ljava/lang/Object;;
const #822 = NameAndType	#819:#821;//  zipWithIndex:(Lscala/collection/IndexedSeqLike;Lscala/collection/generic/CanBuildFrom;)Ljava/lang/Object;
const #823 = Method	#165.#822;	//  scala/collection/IndexedSeqLike$class.zipWithIndex:(Lscala/collection/IndexedSeqLike;Lscala/collection/generic/CanBuildFrom;)Ljava/lang/Object;
const #824 = Asciz	zip;
const #825 = Asciz	(Lscala/collection/Iterable;Lscala/collection/generic/CanBuildFrom;)Ljava/lang/Object;;
const #826 = Asciz	(Lscala/collection/IndexedSeqLike;Lscala/collection/Iterable;Lscala/collection/generic/CanBuildFrom;)Ljava/lang/Object;;
const #827 = NameAndType	#824:#826;//  zip:(Lscala/collection/IndexedSeqLike;Lscala/collection/Iterable;Lscala/collection/generic/CanBuildFrom;)Ljava/lang/Object;
const #828 = Method	#165.#827;	//  scala/collection/IndexedSeqLike$class.zip:(Lscala/collection/IndexedSeqLike;Lscala/collection/Iterable;Lscala/collection/generic/CanBuildFrom;)Ljava/lang/Object;
const #829 = Asciz	reduceRight;
const #830 = Asciz	(Lscala/collection/IndexedSeqLike;Lscala/Function2;)Ljava/lang/Object;;
const #831 = NameAndType	#829:#830;//  reduceRight:(Lscala/collection/IndexedSeqLike;Lscala/Function2;)Ljava/lang/Object;
const #832 = Method	#165.#831;	//  scala/collection/IndexedSeqLike$class.reduceRight:(Lscala/collection/IndexedSeqLike;Lscala/Function2;)Ljava/lang/Object;
const #833 = Asciz	reduceLeft;
const #834 = NameAndType	#833:#830;//  reduceLeft:(Lscala/collection/IndexedSeqLike;Lscala/Function2;)Ljava/lang/Object;
const #835 = Method	#165.#834;	//  scala/collection/IndexedSeqLike$class.reduceLeft:(Lscala/collection/IndexedSeqLike;Lscala/Function2;)Ljava/lang/Object;
const #836 = Asciz	foldRight;
const #837 = Asciz	(Lscala/collection/IndexedSeqLike;Ljava/lang/Object;Lscala/Function2;)Ljava/lang/Object;;
const #838 = NameAndType	#836:#837;//  foldRight:(Lscala/collection/IndexedSeqLike;Ljava/lang/Object;Lscala/Function2;)Ljava/lang/Object;
const #839 = Method	#165.#838;	//  scala/collection/IndexedSeqLike$class.foldRight:(Lscala/collection/IndexedSeqLike;Ljava/lang/Object;Lscala/Function2;)Ljava/lang/Object;
const #840 = Asciz	foldLeft;
const #841 = NameAndType	#840:#837;//  foldLeft:(Lscala/collection/IndexedSeqLike;Ljava/lang/Object;Lscala/Function2;)Ljava/lang/Object;
const #842 = Method	#165.#841;	//  scala/collection/IndexedSeqLike$class.foldLeft:(Lscala/collection/IndexedSeqLike;Ljava/lang/Object;Lscala/Function2;)Ljava/lang/Object;
const #843 = Asciz	find;
const #844 = Asciz	(Lscala/Function1;)Lscala/Option;;
const #845 = Asciz	(Lscala/collection/IndexedSeqLike;Lscala/Function1;)Lscala/Option;;
const #846 = NameAndType	#843:#845;//  find:(Lscala/collection/IndexedSeqLike;Lscala/Function1;)Lscala/Option;
const #847 = Method	#165.#846;	//  scala/collection/IndexedSeqLike$class.find:(Lscala/collection/IndexedSeqLike;Lscala/Function1;)Lscala/Option;
const #848 = Asciz	exists;
const #849 = Asciz	(Lscala/Function1;)Z;
const #850 = Asciz	(Lscala/collection/IndexedSeqLike;Lscala/Function1;)Z;
const #851 = NameAndType	#848:#850;//  exists:(Lscala/collection/IndexedSeqLike;Lscala/Function1;)Z
const #852 = Method	#165.#851;	//  scala/collection/IndexedSeqLike$class.exists:(Lscala/collection/IndexedSeqLike;Lscala/Function1;)Z
const #853 = Asciz	forall;
const #854 = NameAndType	#853:#850;//  forall:(Lscala/collection/IndexedSeqLike;Lscala/Function1;)Z
const #855 = Method	#165.#854;	//  scala/collection/IndexedSeqLike$class.forall:(Lscala/collection/IndexedSeqLike;Lscala/Function1;)Z
const #856 = Asciz	isEmpty;
const #857 = Asciz	(Lscala/collection/IndexedSeqLike;)Z;
const #858 = NameAndType	#856:#857;//  isEmpty:(Lscala/collection/IndexedSeqLike;)Z
const #859 = Method	#165.#858;	//  scala/collection/IndexedSeqLike$class.isEmpty:(Lscala/collection/IndexedSeqLike;)Z
const #860 = Asciz	iterator;
const #861 = NameAndType	#860:#747;//  iterator:(Lscala/collection/IndexedSeqLike;)Lscala/collection/Iterator;
const #862 = Method	#165.#861;	//  scala/collection/IndexedSeqLike$class.iterator:(Lscala/collection/IndexedSeqLike;)Lscala/collection/Iterator;
const #863 = Asciz	scala$collection$IndexedSeqLike$$super$endsWith;
const #864 = NameAndType	#737:#678;//  endsWith:(Lscala/collection/SeqLike;Lscala/collection/Seq;)Z
const #865 = Method	#150.#864;	//  scala/collection/SeqLike$class.endsWith:(Lscala/collection/SeqLike;Lscala/collection/Seq;)Z
const #866 = Asciz	scala$collection$IndexedSeqLike$$super$sameElements;
const #867 = Asciz	(Lscala/collection/IterableLike;Lscala/collection/Iterable;)Z;
const #868 = NameAndType	#767:#867;//  sameElements:(Lscala/collection/IterableLike;Lscala/collection/Iterable;)Z
const #869 = Method	#125.#868;	//  scala/collection/IterableLike$class.sameElements:(Lscala/collection/IterableLike;Lscala/collection/Iterable;)Z
const #870 = Asciz	scala$collection$IndexedSeqLike$$super$init;
const #871 = NameAndType	#802:#504;//  init:(Lscala/collection/TraversableLike;)Ljava/lang/Object;
const #872 = Method	#104.#871;	//  scala/collection/TraversableLike$class.init:(Lscala/collection/TraversableLike;)Ljava/lang/Object;
const #873 = Asciz	scala$collection$IndexedSeqLike$$super$last;
const #874 = NameAndType	#805:#504;//  last:(Lscala/collection/TraversableLike;)Ljava/lang/Object;
const #875 = Method	#104.#874;	//  scala/collection/TraversableLike$class.last:(Lscala/collection/TraversableLike;)Ljava/lang/Object;
const #876 = Asciz	scala$collection$IndexedSeqLike$$super$tail;
const #877 = NameAndType	#808:#504;//  tail:(Lscala/collection/TraversableLike;)Ljava/lang/Object;
const #878 = Method	#104.#877;	//  scala/collection/TraversableLike$class.tail:(Lscala/collection/TraversableLike;)Ljava/lang/Object;
const #879 = Asciz	scala$collection$IndexedSeqLike$$super$head;
const #880 = NameAndType	#811:#535;//  head:(Lscala/collection/IterableLike;)Ljava/lang/Object;
const #881 = Method	#125.#880;	//  scala/collection/IterableLike$class.head:(Lscala/collection/IterableLike;)Ljava/lang/Object;
const #882 = Asciz	scala$collection$IndexedSeqLike$$super$zip;
const #883 = Asciz	(Lscala/collection/IterableLike;Lscala/collection/Iterable;Lscala/collection/generic/CanBuildFrom;)Ljava/lang/Object;;
[...]
   4:	areturn
  LineNumberTable: 
   line 25: 0


public java.lang.Object reverse();
  Code:
   Stack=1, Locals=1, Args_size=1
   0:	aload_0
   1:	invokestatic	#753; //Method scala/collection/IndexedSeqLike$class.reverse:(Lscala/collection/IndexedSeqLike;)Ljava/lang/Object;
   4:	areturn
  LineNumberTable: 
   line 25: 0


public int lastIndexWhere(scala.Function1, int);
  Code:
   Stack=3, Locals=3, Args_size=3
   0:	aload_0
   1:	aload_1
   2:	iload_2
   3:	invokestatic	#757; //Method scala/collection/IndexedSeqLike$class.lastIndexWhere:(Lscala/collection/IndexedSeqLike;Lscala/Function1;I)I
   6:	ireturn
  LineNumberTable: 
   line 25: 0

  LocalVariableTable: 
   Start  Length  Slot  Name   Signature
   0      7      0    this       Lscala/collection/mutable/GenericArray;
   0      7      1    p       Lscala/Function1;
   0      7      2    end       I


public int indexWhere(scala.Function1, int);
  Code:
   Stack=3, Locals=3, Args_size=3
   0:	aload_0
   1:	aload_1
   2:	iload_2
   3:	invokestatic	#759; //Method scala/collection/IndexedSeqLike$class.indexWhere:(Lscala/collection/IndexedSeqLike;Lscala/Function1;I)I
   6:	ireturn
  LineNumberTable: 
   line 25: 0

  LocalVariableTable: 
   Start  Length  Slot  Name   Signature
   0      7      0    this       Lscala/collection/mutable/GenericArray;
   0      7      1    p       Lscala/Function1;
   0      7      2    from       I


public int segmentLength(scala.Function1, int);
  Code:
   Stack=3, Locals=3, Args_size=3
   0:	aload_0
   1:	aload_1
   2:	iload_2
   3:	invokestatic	#762; //Method scala/collection/IndexedSeqLike$class.segmentLength:(Lscala/collection/IndexedSeqLike;Lscala/Function1;I)I
   6:	ireturn
  LineNumberTable: 
   line 25: 0

  LocalVariableTable: 
   Start  Length  Slot  Name   Signature
   0      7      0    this       Lscala/collection/mutable/GenericArray;
   0      7      1    p       Lscala/Function1;
   0      7      2    from       I


public int lengthCompare(int);
  Code:
   Stack=2, Locals=2, Args_size=2
   0:	aload_0
   1:	iload_1
   2:	invokestatic	#766; //Method scala/collection/IndexedSeqLike$class.lengthCompare:(Lscala/collection/IndexedSeqLike;I)I
   5:	ireturn
  LineNumberTable: 
   line 25: 0

  LocalVariableTable: 
   Start  Length  Slot  Name   Signature
   0      6      0    this       Lscala/collection/mutable/GenericArray;
   0      6      1    len       I


public boolean sameElements(scala.collection.Iterable);
  Code:
   Stack=2, Locals=2, Args_size=2
   0:	aload_0
   1:	aload_1
   2:	invokestatic	#771; //Method scala/collection/IndexedSeqLike$class.sameElements:(Lscala/collection/IndexedSeqLike;Lscala/collection/Iterable;)Z
   5:	ireturn
  LineNumberTable: 
   line 25: 0

  LocalVariableTable: 
   Start  Length  Slot  Name   Signature
   0      6      0    this       Lscala/collection/mutable/GenericArray;
   0      6      1    that       Lscala/collection/Iterable;


public scala.Tuple2 span(scala.Function1);
  Code:
   Stack=2, Locals=2, Args_size=2
   0:	aload_0
   1:	aload_1
   2:	invokestatic	#775; //Method scala/collection/IndexedSeqLike$class.span:(Lscala/collection/IndexedSeqLike;Lscala/Function1;)Lscala/Tuple2;
   5:	areturn
  LineNumberTable: 
   line 25: 0

  LocalVariableTable: 
   Start  Length  Slot  Name   Signature
   0      6      0    this       Lscala/collection/mutable/GenericArray;
   0      6      1    p       Lscala/Function1;


public java.lang.Object dropWhile(scala.Function1);
  Code:
   Stack=2, Locals=2, Args_size=2
   0:	aload_0
   1:	aload_1
   2:	invokestatic	#779; //Method scala/collection/IndexedSeqLike$class.dropWhile:(Lscala/collection/IndexedSeqLike;Lscala/Function1;)Ljava/lang/Object;
   5:	areturn
  LineNumberTable: 
   line 25: 0

  LocalVariableTable: 
   Start  Length  Slot  Name   Signature
   0      6      0    this       Lscala/collection/mutable/GenericArray;
   0      6      1    p       Lscala/Function1;


public java.lang.Object takeWhile(scala.Function1);
  Code:
   Stack=2, Locals=2, Args_size=2
   0:	aload_0
   1:	aload_1
   2:	invokestatic	#782; //Method scala/collection/IndexedSeqLike$class.takeWhile:(Lscala/collection/IndexedSeqLike;Lscala/Function1;)Ljava/lang/Object;
   5:	areturn
  LineNumberTable: 
   line 25: 0

  LocalVariableTable: 
   Start  Length  Slot  Name   Signature
   0      6      0    this       Lscala/collection/mutable/GenericArray;
   0      6      1    p       Lscala/Function1;


public scala.Tuple2 splitAt(int);
  Code:
   Stack=2, Locals=2, Args_size=2
   0:	aload_0
   1:	iload_1
   2:	invokestatic	#787; //Method scala/collection/IndexedSeqLike$class.splitAt:(Lscala/collection/IndexedSeqLike;I)Lscala/Tuple2;
   5:	areturn
  LineNumberTable: 
   line 25: 0

  LocalVariableTable: 
   Start  Length  Slot  Name   Signature
   0      6      0    this       Lscala/collection/mutable/GenericArray;
   0      6      1    n       I


public java.lang.Object dropRight(int);
  Code:
   Stack=2, Locals=2, Args_size=2
   0:	aload_0
   1:	iload_1
   2:	invokestatic	#792; //Method scala/collection/IndexedSeqLike$class.dropRight:(Lscala/collection/IndexedSeqLike;I)Ljava/lang/Object;
   5:	areturn
  LineNumberTable: 
   line 25: 0

  LocalVariableTable: 
   Start  Length  Slot  Name   Signature
   0      6      0    this       Lscala/collection/mutable/GenericArray;
   0      6      1    n       I


public java.lang.Object takeRight(int);
  Code:
   Stack=2, Locals=2, Args_size=2
   0:	aload_0
   1:	iload_1
   2:	invokestatic	#795; //Method scala/collection/IndexedSeqLike$class.takeRight:(Lscala/collection/IndexedSeqLike;I)Ljava/lang/Object;
   5:	areturn
  LineNumberTable: 
   line 25: 0

  LocalVariableTable: 
   Start  Length  Slot  Name   Signature
   0      6      0    this       Lscala/collection/mutable/GenericArray;
   0      6      1    n       I


public java.lang.Object drop(int);
  Code:
   Stack=2, Locals=2, Args_size=2
   0:	aload_0
   1:	iload_1
   2:	invokestatic	#798; //Method scala/collection/IndexedSeqLike$class.drop:(Lscala/collection/IndexedSeqLike;I)Ljava/lang/Object;
   5:	areturn
  LineNumberTable: 
   line 25: 0

  LocalVariableTable: 
   Start  Length  Slot  Name   Signature
   0      6      0    this       Lscala/collection/mutable/GenericArray;
   0      6      1    n       I


public java.lang.Object take(int);
  Code:
   Stack=2, Locals=2, Args_size=2
   0:	aload_0
   1:	iload_1
   2:	invokestatic	#801; //Method scala/collection/IndexedSeqLike$class.take:(Lscala/collection/IndexedSeqLike;I)Ljava/lang/Object;
   5:	areturn
  LineNumberTable: 
   line 25: 0

  LocalVariableTable: 
   Start  Length  Slot  Name   Signature
   0      6      0    this       Lscala/collection/mutable/GenericArray;
   0      6      1    n       I


public java.lang.Object init();
  Code:
   Stack=1, Locals=1, Args_size=1
   0:	aload_0
   1:	invokestatic	#804; //Method scala/collection/IndexedSeqLike$class.init:(Lscala/collection/IndexedSeqLike;)Ljava/lang/Object;
   4:	areturn
  LineNumberTable: 
   line 25: 0


public java.lang.Object last();
  Code:
   Stack=1, Locals=1, Args_size=1
   0:	aload_0
   1:	invokestatic	#807; //Method scala/collection/IndexedSeqLike$class.last:(Lscala/collection/IndexedSeqLike;)Ljava/lang/Object;
   4:	areturn
  LineNumberTable: 
   line 25: 0


public java.lang.Object tail();
  Code:
   Stack=1, Locals=1, Args_size=1
   0:	aload_0
   1:	invokestatic	#810; //Method scala/collection/IndexedSeqLike$class.tail:(Lscala/collection/IndexedSeqLike;)Ljava/lang/Object;
   4:	areturn
  LineNumberTable: 
   line 25: 0


public java.lang.Object head();
  Code:
   Stack=1, Locals=1, Args_size=1
   0:	aload_0
   1:	invokestatic	#813; //Method scala/collection/IndexedSeqLike$class.head:(Lscala/collection/IndexedSeqLike;)Ljava/lang/Object;
   4:	areturn
  LineNumberTable: 
   line 25: 0


public java.lang.Object slice(int, int);
  Code:
   Stack=3, Locals=3, Args_size=3
   0:	aload_0
   1:	iload_1
   2:	iload_2
   3:	invokestatic	#818; //Method scala/collection/IndexedSeqLike$class.slice:(Lscala/collection/IndexedSeqLike;II)Ljava/lang/Object;
   6:	areturn
  LineNumberTable: 
   line 25: 0

  LocalVariableTable: 
   Start  Length  Slot  Name   Signature
   0      7      0    this       Lscala/collection/mutable/GenericArray;
   0      7      1    from       I
   0      7      2    until       I


public java.lang.Object zipWithIndex(scala.collection.generic.CanBuildFrom);
  Code:
   Stack=2, Locals=2, Args_size=2
   0:	aload_0
   1:	aload_1
   2:	invokestatic	#823; //Method scala/collection/IndexedSeqLike$class.zipWithIndex:(Lscala/collection/IndexedSeqLike;Lscala/collection/generic/CanBuildFrom;)Ljava/lang/Object;
   5:	areturn
  LineNumberTable: 
   line 25: 0

  LocalVariableTable: 
   Start  Length  Slot  Name   Signature
   0      6      0    this       Lscala/collection/mutable/GenericArray;
   0      6      1    bf       Lscala/collection/generic/CanBuildFrom;


public java.lang.Object zip(scala.collection.Iterable, scala.collection.generic.CanBuildFrom);
  Code:
   Stack=3, Locals=3, Args_size=3
   0:	aload_0
   1:	aload_1
   2:	aload_2
   3:	invokestatic	#828; //Method scala/collection/IndexedSeqLike$class.zip:(Lscala/collection/IndexedSeqLike;Lscala/collection/Iterable;Lscala/collection/generic/CanBuildFrom;)Ljava/lang/Object;
   6:	areturn
  LineNumberTable: 
   line 25: 0

  LocalVariableTable: 
   Start  Length  Slot  Name   Signature
   0      7      0    this       Lscala/collection/mutable/GenericArray;
   0      7      1    that       Lscala/collection/Iterable;
   0      7      2    bf       Lscala/collection/generic/CanBuildFrom;


public java.lang.Object reduceRight(scala.Function2);
  Code:
   Stack=2, Locals=2, Args_size=2
   0:	aload_0
   1:	aload_1
   2:	invokestatic	#832; //Method scala/collection/IndexedSeqLike$class.reduceRight:(Lscala/collection/IndexedSeqLike;Lscala/Function2;)Ljava/lang/Object;
   5:	areturn
  LineNumberTable: 
   line 25: 0

  LocalVariableTable: 
   Start  Length  Slot  Name   Signature
   0      6      0    this       Lscala/collection/mutable/GenericArray;
   0      6      1    op       Lscala/Function2;


public java.lang.Object reduceLeft(scala.Function2);
  Code:
   Stack=2, Locals=2, Args_size=2
   0:	aload_0
   1:	aload_1
   2:	invokestatic	#835; //Method scala/collection/IndexedSeqLike$class.reduceLeft:(Lscala/collection/IndexedSeqLike;Lscala/Function2;)Ljava/lang/Object;
   5:	areturn
  LineNumberTable: 
   line 25: 0

  LocalVariableTable: 
   Start  Length  Slot  Name   Signature
   0      6      0    this       Lscala/collection/mutable/GenericArray;
   0      6      1    op       Lscala/Function2;


public java.lang.Object foldRight(java.lang.Object, scala.Function2);
  Code:
   Stack=3, Locals=3, Args_size=3
   0:	aload_0
   1:	aload_1
   2:	aload_2
   3:	invokestatic	#839; //Method scala/collection/IndexedSeqLike$class.foldRight:(Lscala/collection/IndexedSeqLike;Ljava/lang/Object;Lscala/Function2;)Ljava/lang/Object;
   6:	areturn
  LineNumberTable: 
   line 25: 0

  LocalVariableTable: 
   Start  Length  Slot  Name   Signature
   0      7      0    this       Lscala/collection/mutable/GenericArray;
   0      7      1    z       Ljava/lang/Object;
   0      7      2    op       Lscala/Function2;


public java.lang.Object foldLeft(java.lang.Object, scala.Function2);
  Code:
   Stack=3, Locals=3, Args_size=3
   0:	aload_0
   1:	aload_1
   2:	aload_2
   3:	invokestatic	#842; //Method scala/collection/IndexedSeqLike$class.foldLeft:(Lscala/collection/IndexedSeqLike;Ljava/lang/Object;Lscala/Function2;)Ljava/lang/Object;
   6:	areturn
  LineNumberTable: 
   line 25: 0

  LocalVariableTable: 
   Start  Length  Slot  Name   Signature
   0      7      0    this       Lscala/collection/mutable/GenericArray;
   0      7      1    z       Ljava/lang/Object;
   0      7      2    op       Lscala/Function2;


public scala.Option find(scala.Function1);
  Code:
   Stack=2, Locals=2, Args_size=2
   0:	aload_0
   1:	aload_1
   2:	invokestatic	#847; //Method scala/collection/IndexedSeqLike$class.find:(Lscala/collection/IndexedSeqLike;Lscala/Function1;)Lscala/Option;
   5:	areturn
  LineNumberTable: 
   line 25: 0

  LocalVariableTable: 
   Start  Length  Slot  Name   Signature
   0      6      0    this       Lscala/collection/mutable/GenericArray;
   0      6      1    p       Lscala/Function1;


public boolean exists(scala.Function1);
  Code:
   Stack=2, Locals=2, Args_size=2
   0:	aload_0
   1:	aload_1
   2:	invokestatic	#852; //Method scala/collection/IndexedSeqLike$class.exists:(Lscala/collection/IndexedSeqLike;Lscala/Function1;)Z
   5:	ireturn
  LineNumberTable: 
   line 25: 0

  LocalVariableTable: 
   Start  Length  Slot  Name   Signature
   0      6      0    this       Lscala/collection/mutable/GenericArray;
   0      6      1    p       Lscala/Function1;


public boolean forall(scala.Function1);
  Code:
   Stack=2, Locals=2, Args_size=2
   0:	aload_0
   1:	aload_1
   2:	invokestatic	#855; //Method scala/collection/IndexedSeqLike$class.forall:(Lscala/collection/IndexedSeqLike;Lscala/Function1;)Z
   5:	ireturn
  LineNumberTable: 
   line 25: 0

  LocalVariableTable: 
   Start  Length  Slot  Name   Signature
   0      6      0    this       Lscala/collection/mutable/GenericArray;
   0      6      1    p       Lscala/Function1;


public boolean isEmpty();
  Code:
   Stack=1, Locals=1, Args_size=1
   0:	aload_0
   1:	invokestatic	#859; //Method scala/collection/IndexedSeqLike$class.isEmpty:(Lscala/collection/IndexedSeqLike;)Z
   4:	ireturn
  LineNumberTable: 
   line 25: 0


public scala.collection.Iterator iterator();
  Code:
   Stack=1, Locals=1, Args_size=1
   0:	aload_0
   1:	invokestatic	#862; //Method scala/collection/IndexedSeqLike$class.iterator:(Lscala/collection/IndexedSeqLike;)Lscala/collection/Iterator;
   4:	areturn
  LineNumberTable: 
   line 25: 0


public final boolean scala$collection$IndexedSeqLike$$super$endsWith(scala.collection.Seq);
  Code:
   Stack=2, Locals=2, Args_size=2
   0:	aload_0
   1:	aload_1
   2:	invokestatic	#865; //Method scala/collection/SeqLike$class.endsWith:(Lscala/collection/SeqLike;Lscala/collection/Seq;)Z
   5:	ireturn
  LineNumberTable: 
   line 25: 0

  LocalVariableTable: 
   Start  Length  Slot  Name   Signature
   0      6      0    this       Lscala/collection/mutable/GenericArray;
   0      6      1    that       Lscala/collection/Seq;


public final boolean scala$collection$IndexedSeqLike$$super$sameElements(scala.collection.Iterable);
  Code:
   Stack=2, Locals=2, Args_size=2
   0:	aload_0
   1:	aload_1
   2:	invokestatic	#869; //Method scala/collection/IterableLike$class.sameElements:(Lscala/collection/IterableLike;Lscala/collection/Iterable;)Z
   5:	ireturn
  LineNumberTable: 
   line 25: 0

  LocalVariableTable: 
   Start  Length  Slot  Name   Signature
   0      6      0    this       Lscala/collection/mutable/GenericArray;
   0      6      1    that       Lscala/collection/Iterable;


public final java.lang.Object scala$collection$IndexedSeqLike$$super$init();
  Code:
   Stack=1, Locals=1, Args_size=1
   0:	aload_0
   1:	invokestatic	#872; //Method scala/collection/TraversableLike$class.init:(Lscala/collection/TraversableLike;)Ljava/lang/Object;
   4:	areturn
  LineNumberTable: 
   line 25: 0


public final java.lang.Object scala$collection$IndexedSeqLike$$super$last();
  Code:
   Stack=1, Locals=1, Args_size=1
   0:	aload_0
   1:	invokestatic	#875; //Method scala/collection/TraversableLike$class.last:(Lscala/collection/TraversableLike;)Ljava/lang/Object;
   4:	areturn
  LineNumberTable: 
   line 25: 0


public final java.lang.Object scala$collection$IndexedSeqLike$$super$tail();
  Code:
   Stack=1, Locals=1, Args_size=1
   0:	aload_0
   1:	invokestatic	#878; //Method scala/collection/TraversableLike$class.tail:(Lscala/collection/TraversableLike;)Ljava/lang/Object;
   4:	areturn
  LineNumberTable: 
   line 25: 0


public final java.lang.Object scala$collection$IndexedSeqLike$$super$head();
  Code:
   Stack=1, Locals=1, Args_size=1
   0:	aload_0
   1:	invokestatic	#881; //Method scala/collection/IterableLike$class.head:(Lscala/collection/IterableLike;)Ljava/lang/Object;
   4:	areturn
  LineNumberTable: 
   line 25: 0


public final java.lang.Object scala$collection$IndexedSeqLike$$super$zip(scala.collection.Iterable, scala.collection.generic.CanBuildFrom);
  Code:
   Stack=3, Locals=3, Args_size=3
   0:	aload_0
   1:	aload_1
   2:	aload_2
   3:	invokestatic	#885; //Method scala/collection/IterableLike$class.zip:(Lscala/collection/IterableLike;Lscala/collection/Iterable;Lscala/collection/generic/CanBuildFrom;)Ljava/lang/Object;
   6:	areturn
  LineNumberTable: 
   line 25: 0

  LocalVariableTable: 
   Start  Length  Slot  Name   Signature
   0      7      0    this       Lscala/collection/mutable/GenericArray;
   0      7      1    that       Lscala/collection/Iterable;
   0      7      2    bf       Lscala/collection/generic/CanBuildFrom;


public final java.lang.Object scala$collection$IndexedSeqLike$$super$reduceRight(scala.Function2);
  Code:
   Stack=2, Locals=2, Args_size=2
   0:	aload_0
   1:	aload_1
   2:	invokestatic	#889; //Method scala/collection/IterableLike$class.reduceRight:(Lscala/collection/IterableLike;Lscala/Function2;)Ljava/lang/Object;
   5:	areturn
  LineNumberTable: 
   line 25: 0

  LocalVariableTable: 
   Start  Length  Slot  Name   Signature
   0      6      0    this       Lscala/collection/mutable/GenericArray;
   0      6      1    op       Lscala/Function2;


public final java.lang.Object scala$collection$IndexedSeqLike$$super$reduceLeft(scala.Function2);
  Code:
   Stack=2, Locals=2, Args_size=2
   0:	aload_0
   1:	aload_1
   2:	invokestatic	#893; //Method scala/collection/TraversableLike$class.reduceLeft:(Lscala/collection/TraversableLike;Lscala/Function2;)Ljava/lang/Object;
   5:	areturn
  LineNumberTable: 
   line 25: 0

  LocalVariableTable: 
   Start  Length  Slot  Name   Signature
   0      6      0    this       Lscala/collection/mutable/GenericArray;
   0      6      1    op       Lscala/Function2;


public scala.collection.mutable.IndexedSeqView view(int, int);
  Code:
   Stack=3, Locals=3, Args_size=3
   0:	aload_0
   1:	iload_1
   2:	iload_2
   3:	invokestatic	#896; //Method scala/collection/mutable/IndexedSeqLike$class.view:(Lscala/collection/mutable/IndexedSeqLike;II)Lscala/collection/mutable/IndexedSeqView;
   6:	areturn
  LineNumberTable: 
   line 25: 0

  LocalVariableTable: 
   Start  Length  Slot  Name   Signature
   0      7      0    this       Lscala/collection/mutable/GenericArray;
   0      7      1    from       I
   0      7      2    until       I


public java.lang.Object view();
  Code:
   Stack=1, Locals=1, Args_size=1
   0:	aload_0
   1:	invokestatic	#899; //Method scala/collection/mutable/IndexedSeqLike$class.view:(Lscala/collection/mutable/IndexedSeqLike;)Ljava/lang/Object;
   4:	areturn
  LineNumberTable: 
   line 25: 0


public scala.collection.mutable.IndexedSeq toCollection(java.lang.Object);
  Code:
   Stack=2, Locals=2, Args_size=2
   0:	aload_0
   1:	aload_1
   2:	invokestatic	#902; //Method scala/collection/mutable/IndexedSeqLike$class.toCollection:(Lscala/collection/mutable/IndexedSeqLike;Ljava/lang/Object;)Lscala/collection/mutable/IndexedSeq;
   5:	areturn
  LineNumberTable: 
   line 25: 0

  LocalVariableTable: 
   Start  Length  Slot  Name   Signature
   0      6      0    this       Lscala/collection/mutable/GenericArray;
   0      6      1    repr       Ljava/lang/Object;


public scala.collection.mutable.IndexedSeq thisCollection();
  Code:
   Stack=1, Locals=1, Args_size=1
   0:	aload_0
   1:	invokestatic	#905; //Method scala/collection/mutable/IndexedSeqLike$class.thisCollection:(Lscala/collection/mutable/IndexedSeqLike;)Lscala/collection/mutable/IndexedSeq;
   4:	areturn
  LineNumberTable: 
   line 25: 0


}

