Compiled from "HashTable.scala"
public interface scala.collection.mutable.HashTable extends scala.ScalaObject
  SourceFile: "HashTable.scala"
  Signature: length = 0x2
   00 2B 
  ScalaSig: length = 0x4C9
   05 00 FFFFFF81 2B 06 07 01 02 FFFFFF90 FFFFFF80 FFFFFF81 00 09 02 09 48
   61 73 68 54 61 62 6C 65 0A 02 03 04 01 07 6D 75
   74 61 62 6C 65 0A 02 05 06 01 0A 63 6F 6C 6C 65
   63 74 69 6F 6E 0A 01 07 01 05 73 63 61 6C 61 03
   00 15 02 0A 29 13 03 00 0B 13 10 02 0C 11 0D 01
   0D 0A 02 0E 0F 01 04 6C 61 6E 67 0A 01 10 01 04
   6A 61 76 61 09 02 12 0D 02 06 4F 62 6A 65 63 74
   10 02 14 15 0D 01 06 09 02 16 06 02 0B 53 63 61
   6C 61 4F 62 6A 65 63 74 08 05 18 00 FFFFFF84 00 19 01
   06 24 69 6E 69 74 24 14 01 1A 10 02 14 1B 09 02
   1C 06 02 04 55 6E 69 74 04 08 1E 00 FFFFFF84 FFFFFF80 FFFFFF80 FFFFFF82
   08 1F 02 05 45 6E 74 72 79 11 02 20 23 10 02 14
   21 09 02 22 06 02 04 4E 75 6C 6C 10 04 24 25 27
   32 0D 01 02 09 02 26 02 02 09 48 61 73 68 45 6E
   74 72 79 10 02 28 29 0C 00 04 08 2A 00 FFFFFF84 FFFFFF80 FFFFFF80
   FFFFFFC2 00 2B 02 01 41 11 02 2C 2F 10 02 14 2D 09 02
   2E 06 02 07 4E 6F 74 68 69 6E 67 10 02 14 30 09
   02 31 06 02 03 41 6E 79 10 02 33 1D 0D 01 00 08
   05 35 00 FFFFFF84 08 36 01 0A 6C 6F 61 64 46 61 63 74
   6F 72 15 01 37 10 02 14 38 09 02 39 06 02 03 49
   6E 74 08 07 3B 00 FFFFFFC2 FFFFFF80 FFFFFF84 0A 3C 01 0F 6C 6F 61
   64 46 61 63 74 6F 72 44 65 6E 75 6D 15 01 3D 0F
   01 3E 1D 02 03 FFFFFFE8 08 06 40 00 FFFFFFA0 FFFFFF80 06 3D 01 10
   6C 6F 61 64 46 61 63 74 6F 72 44 65 6E 75 6D 20
   08 05 42 00 FFFFFF84 08 36 01 0B 69 6E 69 74 69 61 6C
   53 69 7A 65 08 05 44 00 FFFFFF84 08 36 01 10 69 6E 69
   74 69 61 6C 54 68 72 65 73 68 6F 6C 64 08 07 46
   00 FFFFFFC0 FFFFFF80 FFFFFF84 08 47 01 05 74 61 62 6C 65 15 01 48
   10 03 14 49 23 09 02 4A 06 02 05 41 72 72 61 79
   08 07 4C 00 FFFFFFC0 FFFFFF80 FFFFFF84 08 4D 01 09 74 61 62 6C 65
   5F 24 65 71 14 02 1A 4E 08 07 4F 4B FFFFFF81 FFFFFF80 FFFFFFC0 00
   48 01 03 78 24 31 08 06 51 00 FFFFFFA0 FFFFFFA0 04 48 01 06
   74 61 62 6C 65 20 08 07 53 00 FFFFFFC0 FFFFFF80 FFFFFF84 08 36 01
   09 74 61 62 6C 65 53 69 7A 65 08 07 55 00 FFFFFFC0 FFFFFF80
   FFFFFF84 08 56 01 0D 74 61 62 6C 65 53 69 7A 65 5F 24
   65 71 14 02 1A 57 08 07 4F 54 FFFFFF81 FFFFFF80 FFFFFFC0 00 37 08
   06 59 00 FFFFFFA0 FFFFFFA0 04 37 01 0A 74 61 62 6C 65 53 69
   7A 65 20 08 07 5B 00 FFFFFFC0 FFFFFF80 FFFFFF84 08 36 01 09 74 68
   72 65 73 68 6F 6C 64 08 07 5D 00 FFFFFFC0 FFFFFF80 FFFFFF84 08 5E
   01 0D 74 68 72 65 73 68 6F 6C 64 5F 24 65 71 14
   02 1A 5F 08 07 4F 5C FFFFFF81 FFFFFF80 FFFFFFC0 00 37 08 06 61 00
   FFFFFFA0 FFFFFFA0 04 37 01 0A 74 68 72 65 73 68 6F 6C 64 20
   08 05 63 00 FFFFFF84 00 36 01 04 73 69 7A 65 08 05 65
   00 FFFFFF84 08 66 01 09 66 69 6E 64 45 6E 74 72 79 14
   02 32 67 08 05 68 64 FFFFFFC0 00 27 01 03 6B 65 79 08
   05 6A 00 FFFFFF84 08 6B 01 08 61 64 64 45 6E 74 72 79
   14 02 1A 6C 08 05 6D 69 FFFFFFC0 00 32 01 01 65 08 05
   6F 00 FFFFFF84 08 70 01 0B 72 65 6D 6F 76 65 45 6E 74
   72 79 14 02 32 71 08 05 68 6E FFFFFFC0 00 27 08 05 73
   00 FFFFFF84 08 74 01 0F 65 6E 74 72 69 65 73 49 74 65
   72 61 74 6F 72 15 01 75 10 03 76 7E 32 0E 02 77
   7C 0E 02 78 7B 0D 01 79 0A 02 7A 08 01 06 3C 72
   6F 6F 74 3E 09 01 07 09 02 7D 06 01 07 70 61 63
   6B 61 67 65 09 03 7F FFFFFF81 00 02 08 49 74 65 72 61
   74 6F 72 0A 02 7D 06 08 06 FFFFFF81 02 00 FFFFFF84 08 74 01
   07 65 6E 74 72 69 65 73 28 06 FFFFFF81 01 FFFFFF81 04 FFFFFF81 07
   10 03 14 FFFFFF81 05 09 03 FFFFFF81 06 06 02 0A 64 65 70 72
   65 63 61 74 65 64 21 02 FFFFFF81 08 01 1B 75 73 65 20
   65 6E 74 72 69 65 73 49 74 65 72 61 74 6F 72 20
   69 6E 73 74 65 61 64 08 06 FFFFFF81 0A 00 FFFFFF84 00 19 01
   05 63 6C 65 61 72 08 07 FFFFFF81 0C 00 FFFFFF84 04 FFFFFF81 0D 01
   0C 6E 65 77 54 68 72 65 73 68 6F 6C 64 14 03 37
   FFFFFF81 0E 08 06 63 FFFFFF81 0B FFFFFFC0 00 37 08 07 FFFFFF81 10 00 FFFFFF84
   04 FFFFFF81 11 01 06 72 65 73 69 7A 65 14 03 1A FFFFFF81 12
   08 07 FFFFFF81 13 FFFFFF81 0F FFFFFFC0 00 37 01 07 6E 65 77 53 69
   7A 65 08 07 FFFFFF81 15 00 FFFFFF84 08 FFFFFF81 16 01 0A 65 6C 65
   6D 45 71 75 61 6C 73 14 06 FFFFFF81 17 FFFFFF81 1A FFFFFF81 1C 10
   03 14 FFFFFF81 18 09 03 FFFFFF81 19 06 02 07 42 6F 6F 6C 65
   61 6E 08 07 FFFFFF81 1B FFFFFF81 14 FFFFFFC0 00 27 01 04 6B 65 79
   31 08 07 FFFFFF81 1D FFFFFF81 14 FFFFFFC0 00 27 01 04 6B 65 79 32
   08 07 FFFFFF81 1F 00 FFFFFF84 08 FFFFFF81 20 01 0C 65 6C 65 6D 48
   61 73 68 43 6F 64 65 14 03 37 FFFFFF81 21 08 06 68 FFFFFF81
   1E FFFFFFC0 00 27 08 07 FFFFFF81 23 00 FFFFFF84 0A FFFFFF81 24 01 07 69
   6D 70 72 6F 76 65 14 03 37 FFFFFF81 25 08 07 FFFFFF81 26 FFFFFF81
   22 FFFFFFC0 00 37 01 05 68 63 6F 64 65 08 07 FFFFFF81 28 00
   FFFFFF84 0A FFFFFF81 29 01 05 69 6E 64 65 78 14 03 37 FFFFFF81 2A
   08 07 FFFFFF81 26 FFFFFF81 27 FFFFFFC0 00 37 
  minor version: 0
  major version: 49
  Constant pool:
const #1 = Asciz	SourceFile;
const #2 = Asciz	HashTable.scala;
const #3 = Asciz	index;
const #4 = Asciz	(I)I;
const #5 = Asciz	improve;
const #6 = Asciz	elemHashCode;
const #7 = Asciz	(Ljava/lang/Object;)I;
const #8 = Asciz	(TA;)I;
const #9 = Asciz	Signature;
const #10 = Asciz	elemEquals;
const #11 = Asciz	(Ljava/lang/Object;Ljava/lang/Object;)Z;
const #12 = Asciz	(TA;TA;)Z;
const #13 = Asciz	clear;
const #14 = Asciz	()V;
const #15 = Asciz	entries;
const #16 = Asciz	()Lscala/collection/Iterator;;
const #17 = Asciz	()Lscala/collection/Iterator<Lscala/collection/mutable/HashEntry<TA;TE;>;>;;
const #18 = Asciz	entriesIterator;
const #19 = Asciz	removeEntry;
const #20 = Asciz	(Ljava/lang/Object;)Lscala/collection/mutable/HashEntry;;
const #21 = Asciz	(TA;)Lscala/collection/mutable/HashEntry<TA;TE;>;;
const #22 = Asciz	addEntry;
const #23 = Asciz	(Lscala/collection/mutable/HashEntry;)V;
const #24 = Asciz	(Lscala/collection/mutable/HashEntry<TA;TE;>;)V;
const #25 = Asciz	findEntry;
const #26 = Asciz	size;
const #27 = Asciz	()I;
const #28 = Asciz	threshold_$eq;
const #29 = Asciz	(I)V;
const #30 = Asciz	threshold;
const #31 = Asciz	tableSize_$eq;
const #32 = Asciz	tableSize;
const #33 = Asciz	table_$eq;
const #34 = Asciz	([Lscala/collection/mutable/HashEntry;)V;
const #35 = Asciz	([Lscala/collection/mutable/HashEntry<TA;Lscala/collection/mutable/HashEntry<TA;TE;>;>;)V;
const #36 = Asciz	table;
const #37 = Asciz	()[Lscala/collection/mutable/HashEntry;;
const #38 = Asciz	()[Lscala/collection/mutable/HashEntry<TA;Lscala/collection/mutable/HashEntry<TA;TE;>;>;;
const #39 = Asciz	initialThreshold;
const #40 = Asciz	initialSize;
const #41 = Asciz	loadFactorDenum;
const #42 = Asciz	loadFactor;
const #43 = Asciz	<A:Ljava/lang/Object;>Ljava/lang/Object;Lscala/ScalaObject;;
const #44 = Asciz	ScalaSig;
const #45 = Asciz	scala/collection/mutable/HashTable;
const #46 = class	#45;	//  scala/collection/mutable/HashTable
const #47 = Asciz	java/lang/Object;
const #48 = class	#47;	//  java/lang/Object
const #49 = Asciz	scala/ScalaObject;
const #50 = class	#49;	//  scala/ScalaObject

{
public abstract int index(int);

public abstract int improve(int);

public abstract int elemHashCode(java.lang.Object);
  Signature: length = 0x2
   00 08 

public abstract boolean elemEquals(java.lang.Object, java.lang.Object);
  Signature: length = 0x2
   00 0C 

public abstract void clear();

public abstract scala.collection.Iterator entries();
  Signature: length = 0x2
   00 11 

public abstract scala.collection.Iterator entriesIterator();
  Signature: length = 0x2
   00 11 

public abstract scala.collection.mutable.HashEntry removeEntry(java.lang.Object);
  Signature: length = 0x2
   00 15 

public abstract void addEntry(scala.collection.mutable.HashEntry);
  Signature: length = 0x2
   00 18 

public abstract scala.collection.mutable.HashEntry findEntry(java.lang.Object);
  Signature: length = 0x2
   00 15 

public abstract int size();

public abstract void threshold_$eq(int);

public abstract int threshold();

public abstract void tableSize_$eq(int);

public abstract int tableSize();

public abstract void table_$eq(scala.collection.mutable.HashEntry[]);
  Signature: length = 0x2
   00 23 

public abstract scala.collection.mutable.HashEntry[] table();
  Signature: length = 0x2
   00 26 

public abstract int initialThreshold();

public abstract int initialSize();

public abstract int loadFactorDenum();

public abstract int loadFactor();

}

