Compiled from "HashTable.scala"
public interface scala.collection.mutable.HashTable extends scala.ScalaObject
  SourceFile: "HashTable.scala"
  Signature: length = 0x2
   00 2C 
  ScalaSig: length = 0x535
   05 00 FFFFFF81 35 06 07 01 02 FFFFFF90 FFFFFF80 FFFFFF81 00 09 02 09 48
   61 73 68 54 61 62 6C 65 0A 02 03 04 01 07 6D 75
   74 61 62 6C 65 0A 02 05 06 01 0A 63 6F 6C 6C 65
   63 74 69 6F 6E 0A 01 07 01 05 73 63 61 6C 61 03
   00 15 02 0A 29 13 03 00 0B 13 10 02 0C 11 0D 01
   0D 0A 02 0E 0F 01 04 6C 61 6E 67 0A 01 10 01 04
   6A 61 76 61 09 02 12 0D 02 06 4F 62 6A 65 63 74
   10 02 14 15 0D 01 06 09 02 16 06 02 0B 53 63 61
   6C 61 4F 62 6A 65 63 74 08 05 18 00 FFFFFF84 00 19 01
   06 24 69 6E 69 74 24 14 01 1A 10 02 14 1B 09 02
   1C 06 02 04 55 6E 69 74 04 08 1E 00 FFFFFF84 FFFFFF80 FFFFFF80 FFFFFF82
   08 1F 02 05 45 6E 74 72 79 11 02 20 23 10 02 14
   21 09 02 22 06 02 04 4E 75 6C 6C 10 04 24 25 27
   32 0D 01 02 09 02 26 02 02 09 48 61 73 68 45 6E
   74 72 79 10 02 28 29 0C 00 04 08 2A 00 FFFFFF84 FFFFFF80 FFFFFF80
   FFFFFFC2 00 2B 02 01 41 11 02 2C 2F 10 02 14 2D 09 02
   2E 06 02 07 4E 6F 74 68 69 6E 67 10 02 14 30 09
   02 31 06 02 03 41 6E 79 10 02 33 1D 0D 01 00 08
   05 35 00 FFFFFF84 08 36 01 0A 6C 6F 61 64 46 61 63 74
   6F 72 15 01 37 10 02 14 38 09 02 39 06 02 03 49
   6E 74 08 07 3B 00 FFFFFFC2 FFFFFF80 FFFFFF84 0A 3C 01 0F 6C 6F 61
   64 46 61 63 74 6F 72 44 65 6E 75 6D 15 01 3D 0F
   01 3E 1D 02 03 FFFFFFE8 08 06 40 00 FFFFFFA0 FFFFFF80 06 3D 01 10
   6C 6F 61 64 46 61 63 74 6F 72 44 65 6E 75 6D 20
   08 05 42 00 FFFFFF84 08 36 01 0B 69 6E 69 74 69 61 6C
   53 69 7A 65 08 05 44 00 FFFFFF84 08 36 01 10 69 6E 69
   74 69 61 6C 54 68 72 65 73 68 6F 6C 64 08 07 46
   00 FFFFFFC0 FFFFFF80 FFFFFF84 08 47 01 05 74 61 62 6C 65 15 01 48
   10 03 14 49 23 09 02 4A 06 02 05 41 72 72 61 79
   08 07 4C 00 FFFFFFC0 FFFFFF80 FFFFFF84 08 4D 01 09 74 61 62 6C 65
   5F 24 65 71 14 02 1A 4E 08 07 4F 4B FFFFFF81 FFFFFF80 FFFFFFC0 00
   48 01 03 78 24 31 08 06 51 00 FFFFFFA0 FFFFFFA0 04 48 01 06
   74 61 62 6C 65 20 08 05 53 00 FFFFFF84 04 36 01 0F 69
   6E 69 74 69 61 6C 43 61 70 61 63 69 74 79 08 05
   55 00 FFFFFF84 04 56 01 0A 70 6F 77 65 72 4F 66 54 77
   6F 14 02 37 57 08 05 58 54 FFFFFFC0 00 37 01 06 74 61
   72 67 65 74 08 07 5A 00 FFFFFFC0 FFFFFF80 FFFFFF84 08 36 01 09 74
   61 62 6C 65 53 69 7A 65 08 07 5C 00 FFFFFFC0 FFFFFF80 FFFFFF84 08
   5D 01 0D 74 61 62 6C 65 53 69 7A 65 5F 24 65 71
   14 02 1A 5E 08 07 4F 5B FFFFFF81 FFFFFF80 FFFFFFC0 00 37 08 06 60
   00 FFFFFFA0 FFFFFFA0 04 37 01 0A 74 61 62 6C 65 53 69 7A 65
   20 08 07 62 00 FFFFFFC0 FFFFFF80 FFFFFF84 08 36 01 09 74 68 72 65
   73 68 6F 6C 64 08 07 64 00 FFFFFFC0 FFFFFF80 FFFFFF84 08 65 01 0D
   74 68 72 65 73 68 6F 6C 64 5F 24 65 71 14 02 1A
   66 08 07 4F 63 FFFFFF81 FFFFFF80 FFFFFFC0 00 37 08 06 68 00 FFFFFFA0 FFFFFFA0
   04 37 01 0A 74 68 72 65 73 68 6F 6C 64 20 08 05
   6A 00 FFFFFF84 08 6B 01 09 66 69 6E 64 45 6E 74 72 79
   14 02 32 6C 08 05 6D 69 FFFFFFC0 00 27 01 03 6B 65 79
   08 05 6F 00 FFFFFF84 08 70 01 08 61 64 64 45 6E 74 72
   79 14 02 1A 71 08 05 72 6E FFFFFFC0 00 32 01 01 65 08
   05 74 00 FFFFFF84 08 75 01 0B 72 65 6D 6F 76 65 45 6E
   74 72 79 14 02 32 76 08 05 6D 73 FFFFFFC0 00 27 08 05
   78 00 FFFFFF84 08 79 01 0F 65 6E 74 72 69 65 73 49 74
   65 72 61 74 6F 72 15 01 7A 10 03 7B 7C 32 0D 01
   04 09 02 7D 04 02 08 49 74 65 72 61 74 6F 72 08
   06 7F 00 FFFFFF84 0A FFFFFF81 00 01 0C 66 6F 72 65 61 63 68
   45 6E 74 72 79 15 04 FFFFFF81 01 FFFFFF81 08 14 03 1A FFFFFF81 02
   08 07 FFFFFF81 03 7E FFFFFFC0 00 FFFFFF81 04 01 01 66 10 06 14 FFFFFF81
   05 32 FFFFFF81 07 09 03 FFFFFF81 06 06 02 09 46 75 6E 63 74
   69 6F 6E 31 10 03 28 FFFFFF81 08 04 09 FFFFFF81 09 7E FFFFFF84 FFFFFF80
   FFFFFF80 FFFFFFC2 00 2B 02 01 43 08 06 FFFFFF81 0B 00 FFFFFF84 08 79 01
   07 65 6E 74 72 69 65 73 28 06 FFFFFF81 0A FFFFFF81 0D FFFFFF81 10
   10 03 14 FFFFFF81 0E 09 03 FFFFFF81 0F 06 02 0A 64 65 70 72
   65 63 61 74 65 64 21 02 FFFFFF81 11 01 1B 75 73 65 20
   65 6E 74 72 69 65 73 49 74 65 72 61 74 6F 72 20
   69 6E 73 74 65 61 64 08 06 FFFFFF81 13 00 FFFFFF84 08 19 01
   0A 63 6C 65 61 72 54 61 62 6C 65 08 07 FFFFFF81 15 00
   FFFFFF84 04 FFFFFF81 16 01 0C 6E 65 77 54 68 72 65 73 68 6F
   6C 64 14 03 37 FFFFFF81 17 08 07 FFFFFF81 18 FFFFFF81 14 FFFFFFC0 00 37
   01 04 73 69 7A 65 08 07 FFFFFF81 1A 00 FFFFFF84 04 FFFFFF81 1B 01
   06 72 65 73 69 7A 65 14 03 1A FFFFFF81 1C 08 07 FFFFFF81 1D
   FFFFFF81 19 FFFFFFC0 00 37 01 07 6E 65 77 53 69 7A 65 08 07
   FFFFFF81 1F 00 FFFFFF84 08 FFFFFF81 20 01 0A 65 6C 65 6D 45 71 75
   61 6C 73 14 06 FFFFFF81 21 FFFFFF81 24 FFFFFF81 26 10 03 14 FFFFFF81 22
   09 03 FFFFFF81 23 06 02 07 42 6F 6F 6C 65 61 6E 08 07
   FFFFFF81 25 FFFFFF81 1E FFFFFFC0 00 27 01 04 6B 65 79 31 08 07 FFFFFF81
   27 FFFFFF81 1E FFFFFFC0 00 27 01 04 6B 65 79 32 08 07 FFFFFF81 29
   00 FFFFFF84 08 FFFFFF81 2A 01 0C 65 6C 65 6D 48 61 73 68 43
   6F 64 65 14 03 37 FFFFFF81 2B 08 06 6D FFFFFF81 28 FFFFFFC0 00 27
   08 07 FFFFFF81 2D 00 FFFFFF84 0A FFFFFF81 2E 01 07 69 6D 70 72 6F
   76 65 14 03 37 FFFFFF81 2F 08 07 FFFFFF81 30 FFFFFF81 2C FFFFFFC0 00 37
   01 05 68 63 6F 64 65 08 07 FFFFFF81 32 00 FFFFFF84 0A FFFFFF81 33
   01 05 69 6E 64 65 78 14 03 37 FFFFFF81 34 08 07 FFFFFF81 30
   FFFFFF81 31 FFFFFFC0 00 37 
  InnerClass: 
   public final $anon$1=class scala/collection/mutable/HashTable$$anon$1 of class scala/collection/mutable/HashTable
  minor version: 0
  major version: 49
  Constant pool:
Asciz	SourceFile;
Asciz	HashTable.scala;
Asciz	index;
Asciz	(I)I;
Asciz	improve;
Asciz	elemHashCode;
Asciz	(Ljava/lang/Object;)I;
Asciz	(TA;)I;
Asciz	Signature;
Asciz	elemEquals;
Asciz	(Ljava/lang/Object;Ljava/lang/Object;)Z;
Asciz	(TA;TA;)Z;
Asciz	clearTable;
Asciz	()V;
Asciz	entries;
Asciz	()Lscala/collection/Iterator;;
Asciz	()Lscala/collection/Iterator<Lscala/collection/mutable/HashEntry;>;;
Asciz	foreachEntry;
Asciz	(Lscala/Function1;)V;
Asciz	<C:Ljava/lang/Object;>(Lscala/Function1<Lscala/collection/mutable/HashEntry;TC;>;)V;
Asciz	entriesIterator;
Asciz	removeEntry;
Asciz	(Ljava/lang/Object;)Lscala/collection/mutable/HashEntry;;
Asciz	(TA;)Lscala/collection/mutable/HashEntry;;
Asciz	addEntry;
Asciz	(Lscala/collection/mutable/HashEntry;)V;
Asciz	findEntry;
Asciz	threshold_$eq;
Asciz	(I)V;
Asciz	threshold;
Asciz	()I;
Asciz	tableSize_$eq;
Asciz	tableSize;
Asciz	table_$eq;
Asciz	([Lscala/collection/mutable/HashEntry;)V;
Asciz	([Lscala/collection/mutable/HashEntry<TA;Lscala/collection/mutable/HashEntry;>;)V;
Asciz	table;
Asciz	()[Lscala/collection/mutable/HashEntry;;
Asciz	()[Lscala/collection/mutable/HashEntry<TA;Lscala/collection/mutable/HashEntry;>;;
Asciz	initialThreshold;
Asciz	initialSize;
Asciz	loadFactorDenum;
Asciz	loadFactor;
Asciz	<A:Ljava/lang/Object;>Ljava/lang/Object;Lscala/ScalaObject;;
Asciz	ScalaSig;
Asciz	InnerClasses;
Asciz	scala/collection/mutable/HashTable$$anon$1;
class	scala/collection/mutable/HashTable$$anon$1
Asciz	scala/collection/mutable/HashTable;
class	scala/collection/mutable/HashTable
Asciz	$anon$1;
Asciz	java/lang/Object;
class	java/lang/Object
Asciz	scala/ScalaObject;
class	scala/ScalaObject

{
public abstract int index(int);
  Signature: (I)I

public abstract int improve(int);
  Signature: (I)I

public abstract int elemHashCode(java.lang.Object);
  Signature: (Ljava/lang/Object;)I
  Signature: length = 0x2
   00 08 

public abstract boolean elemEquals(java.lang.Object, java.lang.Object);
  Signature: (Ljava/lang/Object;Ljava/lang/Object;)Z
  Signature: length = 0x2
   00 0C 

public abstract void clearTable();
  Signature: ()V

public abstract scala.collection.Iterator entries();
  Signature: ()Lscala/collection/Iterator;
  Signature: length = 0x2
   00 11 

public abstract void foreachEntry(scala.Function1);
  Signature: (Lscala/Function1;)V
  Signature: length = 0x2
   00 14 

public abstract scala.collection.Iterator entriesIterator();
  Signature: ()Lscala/collection/Iterator;
  Signature: length = 0x2
   00 11 

public abstract scala.collection.mutable.HashEntry removeEntry(java.lang.Object);
  Signature: (Ljava/lang/Object;)Lscala/collection/mutable/HashEntry;
  Signature: length = 0x2
   00 18 

public abstract void addEntry(scala.collection.mutable.HashEntry);
  Signature: (Lscala/collection/mutable/HashEntry;)V
  Signature: length = 0x2
   00 1A 

public abstract scala.collection.mutable.HashEntry findEntry(java.lang.Object);
  Signature: (Ljava/lang/Object;)Lscala/collection/mutable/HashEntry;
  Signature: length = 0x2
   00 18 

public abstract void threshold_$eq(int);
  Signature: (I)V

public abstract int threshold();
  Signature: ()I

public abstract void tableSize_$eq(int);
  Signature: (I)V

public abstract int tableSize();
  Signature: ()I

public abstract void table_$eq(scala.collection.mutable.HashEntry[]);
  Signature: ([Lscala/collection/mutable/HashEntry;)V
  Signature: length = 0x2
   00 24 

public abstract scala.collection.mutable.HashEntry[] table();
  Signature: ()[Lscala/collection/mutable/HashEntry;
  Signature: length = 0x2
   00 27 

public abstract int initialThreshold();
  Signature: ()I

public abstract int initialSize();
  Signature: ()I

public abstract int loadFactorDenum();
  Signature: ()I

public abstract int loadFactor();
  Signature: ()I

}

