Compiled from "HashEntry.scala"
public interface scala.collection.mutable.HashEntry extends scala.ScalaObject
  SourceFile: "HashEntry.scala"
  Signature: length = 0x2
   00 0C 
  ScalaSig: length = 0x145
   05 00 38 06 07 01 02 FFFFFF90 FFFFFF80 FFFFFF81 00 09 02 09 48 61
   73 68 45 6E 74 72 79 0A 02 03 04 01 07 6D 75 74
   61 62 6C 65 0A 02 05 06 01 0A 63 6F 6C 6C 65 63
   74 69 6F 6E 0A 01 07 01 05 73 63 61 6C 61 03 00
   15 03 0A 22 2F 13 03 00 0B 13 10 02 0C 11 0D 01
   0D 0A 02 0E 0F 01 04 6C 61 6E 67 0A 01 10 01 04
   6A 61 76 61 09 02 12 0D 02 06 4F 62 6A 65 63 74
   10 02 14 15 0D 01 06 09 02 16 06 02 0B 53 63 61
   6C 61 4F 62 6A 65 63 74 08 05 18 00 FFFFFF84 00 19 01
   06 24 69 6E 69 74 24 14 01 1A 10 02 14 1B 09 02
   1C 06 02 04 55 6E 69 74 08 07 1E 00 FFFFFFC2 FFFFFF80 FFFFFF86 00
   1F 01 03 6B 65 79 15 01 20 10 02 21 22 0C 00 04
   08 23 00 FFFFFF84 FFFFFF80 FFFFFF80 FFFFFFC2 00 24 02 01 41 11 02 25 28
   10 02 14 26 09 02 27 06 02 07 4E 6F 74 68 69 6E
   67 10 02 14 29 09 02 2A 06 02 03 41 6E 79 08 07
   2C 00 FFFFFFC0 FFFFFF80 FFFFFF84 00 2D 01 04 6E 65 78 74 15 01 2E
   10 02 21 2F 04 08 30 00 FFFFFF84 FFFFFF80 FFFFFF80 FFFFFFC2 00 24 02 01
   45 08 07 32 00 FFFFFFC0 FFFFFF80 FFFFFF84 00 33 01 08 6E 65 78 74
   5F 24 65 71 14 02 1A 34 08 07 35 31 FFFFFF81 FFFFFF80 FFFFFFC0 00
   2E 01 03 78 24 31 08 06 37 00 FFFFFFA0 FFFFFFA0 04 2E 01 05
   6E 65 78 74 20 
  minor version: 0
  major version: 49
  Constant pool:
const #1 = Asciz	SourceFile;
const #2 = Asciz	HashEntry.scala;
const #3 = Asciz	next_$eq;
const #4 = Asciz	(Ljava/lang/Object;)V;
const #5 = Asciz	(TE;)V;
const #6 = Asciz	Signature;
const #7 = Asciz	next;
const #8 = Asciz	()Ljava/lang/Object;;
const #9 = Asciz	()TE;;
const #10 = Asciz	key;
const #11 = Asciz	()TA;;
const #12 = Asciz	<A:Ljava/lang/Object;E:Ljava/lang/Object;>Ljava/lang/Object;Lscala/ScalaObject;;
const #13 = Asciz	ScalaSig;
const #14 = Asciz	scala/collection/mutable/HashEntry;
const #15 = class	#14;	//  scala/collection/mutable/HashEntry
const #16 = Asciz	java/lang/Object;
const #17 = class	#16;	//  java/lang/Object
const #18 = Asciz	scala/ScalaObject;
const #19 = class	#18;	//  scala/ScalaObject

{
public abstract void next_$eq(java.lang.Object);
  Signature: length = 0x2
   00 05 

public abstract java.lang.Object next();
  Signature: length = 0x2
   00 09 

public abstract java.lang.Object key();
  Signature: length = 0x2
   00 0B 

}

