Compiled from "HashTable.scala"
public interface scala.collection.mutable.HashTable extends scala.ScalaObject
  SourceFile: "HashTable.scala"
  Signature: length = 0x2
   00 35 
  ScalaSig: length = 0x737
   05 00 FFFFFF81 72 06 07 01 02 FFFFFF90 FFFFFF80 FFFFFF81 00 09 02 09 48
   61 73 68 54 61 62 6C 65 0A 02 03 04 01 07 6D 75
   74 61 62 6C 65 0A 02 05 06 01 0A 63 6F 6C 6C 65
   63 74 69 6F 6E 0A 01 07 01 05 73 63 61 6C 61 03
   00 15 02 0A 29 13 03 00 0B 13 10 02 0C 11 0D 01
   0D 0A 02 0E 0F 01 04 6C 61 6E 67 0A 01 10 01 04
   6A 61 76 61 09 02 12 0D 02 06 4F 62 6A 65 63 74
   10 02 14 15 0D 01 06 09 02 16 06 02 0B 53 63 61
   6C 61 4F 62 6A 65 63 74 08 05 18 00 FFFFFF84 00 19 01
   06 24 69 6E 69 74 24 14 01 1A 10 02 14 1B 09 02
   1C 06 02 04 55 6E 69 74 04 08 1E 00 FFFFFF84 FFFFFF80 FFFFFF80 FFFFFF82
   08 1F 02 05 45 6E 74 72 79 11 02 20 23 10 02 14
   21 09 02 22 06 02 04 4E 75 6C 6C 10 04 24 25 27
   32 0D 01 02 09 02 26 02 02 09 48 61 73 68 45 6E
   74 72 79 10 02 28 29 0C 00 04 08 2A 00 FFFFFF84 FFFFFF80 FFFFFF80
   FFFFFFC2 00 2B 02 01 41 11 02 2C 2F 10 02 14 2D 09 02
   2E 06 02 07 4E 6F 74 68 69 6E 67 10 02 14 30 09
   02 31 06 02 03 41 6E 79 10 02 33 1D 0D 01 00 08
   05 35 00 FFFFFF84 08 36 01 0A 6C 6F 61 64 46 61 63 74
   6F 72 15 01 37 10 02 14 38 09 02 39 06 02 03 49
   6E 74 08 07 3B 00 FFFFFFC2 FFFFFF80 FFFFFF84 0A 3C 01 0F 6C 6F 61
   64 46 61 63 74 6F 72 44 65 6E 75 6D 15 01 3D 0F
   01 3E 1D 02 03 FFFFFFE8 08 06 40 00 FFFFFFA0 FFFFFF80 06 3D 01 10
   6C 6F 61 64 46 61 63 74 6F 72 44 65 6E 75 6D 20
   08 05 42 00 FFFFFF84 08 36 01 0B 69 6E 69 74 69 61 6C
   53 69 7A 65 08 05 44 00 FFFFFF84 08 36 01 10 69 6E 69
   74 69 61 6C 54 68 72 65 73 68 6F 6C 64 08 08 46
   00 FFFFFFC0 FFFFFF80 FFFFFF84 00 04 36 01 0B 5F 6C 6F 61 64 46 61
   63 74 6F 72 08 08 48 00 FFFFFFC0 FFFFFF80 FFFFFF84 00 04 49 01 0F
   5F 6C 6F 61 64 46 61 63 74 6F 72 5F 24 65 71 14
   02 1A 4A 08 07 4B 47 FFFFFF81 FFFFFF80 FFFFFFC0 00 37 01 03 78 24
   31 08 06 4D 00 FFFFFFA0 FFFFFFA0 04 37 01 0C 5F 6C 6F 61 64
   46 61 63 74 6F 72 20 28 02 4C 4F 10 02 14 50 09
   02 51 06 02 09 74 72 61 6E 73 69 65 6E 74 08 07
   53 00 FFFFFFC0 FFFFFF80 FFFFFF84 08 54 01 05 74 61 62 6C 65 15 01
   55 10 03 14 56 23 09 02 57 06 02 05 41 72 72 61
   79 08 07 59 00 FFFFFFC0 FFFFFF80 FFFFFF84 08 5A 01 09 74 61 62 6C
   65 5F 24 65 71 14 02 1A 5B 08 07 4B 58 FFFFFF81 FFFFFF80 FFFFFFC0
   00 55 08 06 5D 00 FFFFFFA0 FFFFFFA0 04 55 01 06 74 61 62 6C
   65 20 28 02 5C 4F 08 07 60 00 FFFFFFC0 FFFFFF80 FFFFFF84 08 36 01
   09 74 61 62 6C 65 53 69 7A 65 08 07 62 00 FFFFFFC0 FFFFFF80
   FFFFFF84 08 63 01 0D 74 61 62 6C 65 53 69 7A 65 5F 24
   65 71 14 02 1A 64 08 07 4B 61 FFFFFF81 FFFFFF80 FFFFFFC0 00 37 08
   06 66 00 FFFFFFA0 FFFFFFA0 04 37 01 0A 74 61 62 6C 65 53 69
   7A 65 20 28 02 65 4F 08 07 69 00 FFFFFFC0 FFFFFF80 FFFFFF84 08 36
   01 09 74 68 72 65 73 68 6F 6C 64 08 07 6B 00 FFFFFFC0
   FFFFFF80 FFFFFF84 08 6C 01 0D 74 68 72 65 73 68 6F 6C 64 5F
   24 65 71 14 02 1A 6D 08 07 4B 6A FFFFFF81 FFFFFF80 FFFFFFC0 00 37
   08 06 6F 00 FFFFFFA0 FFFFFFA0 04 37 01 0A 74 68 72 65 73 68
   6F 6C 64 20 28 02 6E 4F 08 05 72 00 FFFFFF84 04 36 01
   0F 69 6E 69 74 69 61 6C 43 61 70 61 63 69 74 79
   08 06 74 00 FFFFFF84 00 04 75 01 04 69 6E 69 74 15 03
   76 FFFFFF81 05 14 03 1A 77 7F 08 05 78 73 FFFFFFC0 00 79 01
   02 69 6E 10 02 7A 7D 0D 01 7B 0A 02 7C 0F 01 02
   69 6F 09 02 7E 7B 02 11 4F 62 6A 65 63 74 49 6E
   70 75 74 53 74 72 65 61 6D 08 07 FFFFFF81 00 73 FFFFFFC0 00
   FFFFFF81 01 01 01 66 10 07 14 FFFFFF81 02 27 FFFFFF81 04 32 09 03
   FFFFFF81 03 06 02 09 46 75 6E 63 74 69 6F 6E 32 10 03
   28 FFFFFF81 05 04 09 FFFFFF81 06 73 FFFFFF84 FFFFFF80 FFFFFF80 FFFFFFC2 00 2B 02 01
   42 08 08 FFFFFF81 08 00 FFFFFF84 00 04 FFFFFF81 09 01 0B 73 65 72
   69 61 6C 69 7A 65 54 6F 15 04 FFFFFF81 0A FFFFFF81 16 14 05
   1A FFFFFF81 0B FFFFFF81 10 08 08 FFFFFF81 0C FFFFFF81 07 FFFFFFC0 00 FFFFFF81 0D 01
   03 6F 75 74 10 03 7A FFFFFF81 0E 09 03 FFFFFF81 0F 7B 02 12
   4F 62 6A 65 63 74 4F 75 74 70 75 74 53 74 72 65
   61 6D 08 08 FFFFFF81 11 FFFFFF81 07 FFFFFFC0 00 FFFFFF81 12 01 05 76 61
   6C 75 65 10 06 14 FFFFFF81 13 32 FFFFFF81 15 09 03 FFFFFF81 14 06
   02 09 46 75 6E 63 74 69 6F 6E 31 10 03 28 FFFFFF81 16
   04 0A FFFFFF81 06 FFFFFF81 07 FFFFFF84 FFFFFF80 FFFFFF80 FFFFFFC2 00 2B 08 07 FFFFFF81 18
   00 FFFFFF84 04 FFFFFF81 19 01 08 63 61 70 61 63 69 74 79 14
   03 37 FFFFFF81 1A 08 07 FFFFFF81 1B FFFFFF81 17 FFFFFFC0 00 37 01 0C 65
   78 70 65 63 74 65 64 53 69 7A 65 08 07 FFFFFF81 1D 00
   FFFFFF84 08 FFFFFF81 1E 01 09 66 69 6E 64 45 6E 74 72 79 14
   03 32 FFFFFF81 1F 08 07 FFFFFF81 20 FFFFFF81 1C FFFFFFC0 00 27 01 03 6B
   65 79 08 07 FFFFFF81 22 00 FFFFFF84 08 FFFFFF81 23 01 08 61 64 64
   45 6E 74 72 79 14 03 1A FFFFFF81 24 08 07 FFFFFF81 25 FFFFFF81 21
   FFFFFFC0 00 32 01 01 65 08 07 FFFFFF81 27 00 FFFFFF84 08 FFFFFF81 28 01
   0B 72 65 6D 6F 76 65 45 6E 74 72 79 14 03 32 FFFFFF81
   29 08 07 FFFFFF81 20 FFFFFF81 26 FFFFFFC0 00 27 08 07 FFFFFF81 2B 00 FFFFFF84
   08 FFFFFF81 2C 01 0F 65 6E 74 72 69 65 73 49 74 65 72
   61 74 6F 72 15 02 FFFFFF81 2D 10 05 FFFFFF81 2E FFFFFF81 2F 32 0D
   01 04 09 03 FFFFFF81 30 04 02 08 49 74 65 72 61 74 6F
   72 08 07 FFFFFF81 32 00 FFFFFF84 0A FFFFFF81 33 01 0C 66 6F 72 65
   61 63 68 45 6E 74 72 79 15 04 FFFFFF81 34 FFFFFF81 38 14 03
   1A FFFFFF81 35 08 08 FFFFFF81 00 FFFFFF81 31 FFFFFFC0 00 FFFFFF81 36 10 06 14
   FFFFFF81 13 32 FFFFFF81 37 10 03 28 FFFFFF81 38 04 0A FFFFFF81 39 FFFFFF81 31
   FFFFFF84 FFFFFF80 FFFFFF80 FFFFFFC2 00 2B 02 01 43 08 07 FFFFFF81 3B 00 FFFFFF84 08
   FFFFFF81 2C 01 07 65 6E 74 72 69 65 73 28 06 FFFFFF81 3A FFFFFF81
   3D FFFFFF81 40 10 03 14 FFFFFF81 3E 09 03 FFFFFF81 3F 06 02 0A 64
   65 70 72 65 63 61 74 65 64 21 02 FFFFFF81 41 01 1B 75
   73 65 20 65 6E 74 72 69 65 73 49 74 65 72 61 74
   6F 72 20 69 6E 73 74 65 61 64 08 06 FFFFFF81 43 00 FFFFFF84
   08 19 01 0A 63 6C 65 61 72 54 61 62 6C 65 08 07
   FFFFFF81 45 00 FFFFFF84 04 FFFFFF81 46 01 0C 6E 65 77 54 68 72 65
   73 68 6F 6C 64 14 03 37 FFFFFF81 47 08 07 FFFFFF81 48 FFFFFF81 44
   FFFFFFC0 00 37 01 04 73 69 7A 65 08 07 FFFFFF81 4A 00 FFFFFF84 04
   FFFFFF81 4B 01 06 72 65 73 69 7A 65 14 03 1A FFFFFF81 4C 08
   07 FFFFFF81 4D FFFFFF81 49 FFFFFFC0 00 37 01 07 6E 65 77 53 69 7A
   65 08 07 FFFFFF81 4F 00 FFFFFF84 08 FFFFFF81 50 01 0A 65 6C 65 6D
   45 71 75 61 6C 73 14 06 FFFFFF81 51 FFFFFF81 54 FFFFFF81 56 10 03
   14 FFFFFF81 52 09 03 FFFFFF81 53 06 02 07 42 6F 6F 6C 65 61
   6E 08 07 FFFFFF81 55 FFFFFF81 4E FFFFFFC0 00 27 01 04 6B 65 79 31
   08 07 FFFFFF81 57 FFFFFF81 4E FFFFFFC0 00 27 01 04 6B 65 79 32 08
   07 FFFFFF81 59 00 FFFFFF84 08 FFFFFF81 5A 01 0C 65 6C 65 6D 48 61
   73 68 43 6F 64 65 14 03 37 FFFFFF81 5B 08 07 FFFFFF81 20 FFFFFF81
   58 FFFFFFC0 00 27 08 07 FFFFFF81 5D 00 FFFFFF84 0A FFFFFF81 5E 01 07 69
   6D 70 72 6F 76 65 14 03 37 FFFFFF81 5F 08 07 FFFFFF81 60 FFFFFF81
   5C FFFFFFC0 00 37 01 05 68 63 6F 64 65 08 07 FFFFFF81 62 00
   FFFFFF84 0A FFFFFF81 63 01 05 69 6E 64 65 78 14 03 37 FFFFFF81 64
   08 07 FFFFFF81 60 FFFFFF81 61 FFFFFFC0 00 37 07 08 FFFFFF81 66 02 FFFFFF88 02
   04 FFFFFF81 67 01 09 48 61 73 68 54 61 62 6C 65 10 03
   24 FFFFFF81 68 06 09 01 02 FFFFFF84 FFFFFF80 FFFFFF80 FFFFFF88 02 FFFFFF81 69 13 04
   FFFFFF81 68 0B 13 08 08 FFFFFF81 6B FFFFFF81 68 FFFFFF84 00 FFFFFF81 6C 01 06
   3C 69 6E 69 74 3E 14 02 FFFFFF81 67 08 09 FFFFFF81 6E FFFFFF81 68
   FFFFFF84 00 04 FFFFFF81 6F 01 0A 70 6F 77 65 72 4F 66 54 77
   6F 14 03 37 FFFFFF81 70 08 07 FFFFFF81 71 FFFFFF81 6D FFFFFFC0 00 37 01
   06 74 61 72 67 65 74 
  InnerClass: 
   public final #60= #57 of #59; //$anon$1=class scala/collection/mutable/HashTable$$anon$1 of class scala/collection/mutable/HashTable
   public final #63= #62 of #59; //$anonfun$serializeTo$1=class scala/collection/mutable/HashTable$$anonfun$serializeTo$1 of class scala/collection/mutable/HashTable
  minor version: 0
  major version: 49
  Constant pool:
const #1 = Asciz	SourceFile;
const #2 = Asciz	HashTable.scala;
const #3 = Asciz	index;
const #4 = Asciz	(I)I;
const #5 = Asciz	improve;
const #6 = Asciz	elemHashCode;
const #7 = Asciz	(Ljava/lang/Object;)I;
const #8 = Asciz	(TA;)I;
const #9 = Asciz	Signature;
const #10 = Asciz	elemEquals;
const #11 = Asciz	(Ljava/lang/Object;Ljava/lang/Object;)Z;
const #12 = Asciz	(TA;TA;)Z;
const #13 = Asciz	clearTable;
const #14 = Asciz	()V;
const #15 = Asciz	entries;
const #16 = Asciz	()Lscala/collection/Iterator;;
const #17 = Asciz	()Lscala/collection/Iterator<Lscala/collection/mutable/HashEntry;>;;
const #18 = Asciz	Deprecated;
const #19 = Asciz	foreachEntry;
const #20 = Asciz	(Lscala/Function1;)V;
const #21 = Asciz	<C:Ljava/lang/Object;>(Lscala/Function1<Lscala/collection/mutable/HashEntry;TC;>;)V;
const #22 = Asciz	entriesIterator;
const #23 = Asciz	removeEntry;
const #24 = Asciz	(Ljava/lang/Object;)Lscala/collection/mutable/HashEntry;;
const #25 = Asciz	(TA;)Lscala/collection/mutable/HashEntry;;
const #26 = Asciz	addEntry;
const #27 = Asciz	(Lscala/collection/mutable/HashEntry;)V;
const #28 = Asciz	findEntry;
const #29 = Asciz	serializeTo;
const #30 = Asciz	(Ljava/io/ObjectOutputStream;Lscala/Function1;)V;
const #31 = Asciz	<B:Ljava/lang/Object;>(Ljava/io/ObjectOutputStream;Lscala/Function1<Lscala/collection/mutable/HashEntry;TB;>;)V;
const #32 = Asciz	init;
const #33 = Asciz	(Ljava/io/ObjectInputStream;Lscala/Function2;)V;
const #34 = Asciz	<B:Ljava/lang/Object;>(Ljava/io/ObjectInputStream;Lscala/Function2<TA;TB;Lscala/collection/mutable/HashEntry;>;)V;
const #35 = Asciz	threshold_$eq;
const #36 = Asciz	(I)V;
const #37 = Asciz	threshold;
const #38 = Asciz	()I;
const #39 = Asciz	tableSize_$eq;
const #40 = Asciz	tableSize;
const #41 = Asciz	table_$eq;
const #42 = Asciz	([Lscala/collection/mutable/HashEntry;)V;
const #43 = Asciz	([Lscala/collection/mutable/HashEntry<TA;Lscala/collection/mutable/HashEntry;>;)V;
const #44 = Asciz	table;
const #45 = Asciz	()[Lscala/collection/mutable/HashEntry;;
const #46 = Asciz	()[Lscala/collection/mutable/HashEntry<TA;Lscala/collection/mutable/HashEntry;>;;
const #47 = Asciz	_loadFactor_$eq;
const #48 = Asciz	_loadFactor;
const #49 = Asciz	initialThreshold;
const #50 = Asciz	initialSize;
const #51 = Asciz	loadFactorDenum;
const #52 = Asciz	loadFactor;
const #53 = Asciz	<A:Ljava/lang/Object;>Ljava/lang/Object;Lscala/ScalaObject;;
const #54 = Asciz	ScalaSig;
const #55 = Asciz	InnerClasses;
const #56 = Asciz	scala/collection/mutable/HashTable$$anon$1;
const #57 = class	#56;	//  scala/collection/mutable/HashTable$$anon$1
const #58 = Asciz	scala/collection/mutable/HashTable;
const #59 = class	#58;	//  scala/collection/mutable/HashTable
const #60 = Asciz	$anon$1;
const #61 = Asciz	scala/collection/mutable/HashTable$$anonfun$serializeTo$1;
const #62 = class	#61;	//  scala/collection/mutable/HashTable$$anonfun$serializeTo$1
const #63 = Asciz	$anonfun$serializeTo$1;
const #64 = Asciz	java/lang/Object;
const #65 = class	#64;	//  java/lang/Object
const #66 = Asciz	scala/ScalaObject;
const #67 = class	#66;	//  scala/ScalaObject

{
public abstract int index(int);

public abstract int improve(int);

public abstract int elemHashCode(java.lang.Object);
  Signature: length = 0x2
   00 08 

public abstract boolean elemEquals(java.lang.Object, java.lang.Object);
  Signature: length = 0x2
   00 0C 

public abstract void clearTable();

public abstract scala.collection.Iterator entries();
  Signature: length = 0x2
   00 11 
  Deprecated: true

public abstract void foreachEntry(scala.Function1);
  Signature: length = 0x2
   00 15 

public abstract scala.collection.Iterator entriesIterator();
  Signature: length = 0x2
   00 11 

public abstract scala.collection.mutable.HashEntry removeEntry(java.lang.Object);
  Signature: length = 0x2
   00 19 

public abstract void addEntry(scala.collection.mutable.HashEntry);
  Signature: length = 0x2
   00 1B 

public abstract scala.collection.mutable.HashEntry findEntry(java.lang.Object);
  Signature: length = 0x2
   00 19 

public abstract void serializeTo(java.io.ObjectOutputStream, scala.Function1);
  Signature: length = 0x2
   00 1F 

public abstract void init(java.io.ObjectInputStream, scala.Function2);
  Signature: length = 0x2
   00 22 

public abstract void threshold_$eq(int);

public abstract int threshold();

public abstract void tableSize_$eq(int);

public abstract int tableSize();

public abstract void table_$eq(scala.collection.mutable.HashEntry[]);
  Signature: length = 0x2
   00 2B 

public abstract scala.collection.mutable.HashEntry[] table();
  Signature: length = 0x2
   00 2E 

public abstract void _loadFactor_$eq(int);

public abstract int _loadFactor();

public abstract int initialThreshold();

public abstract int initialSize();

public abstract int loadFactorDenum();

public abstract int loadFactor();

}

