Compiled from "ImmutableMapAdaptor.scala"
public class scala.collection.mutable.ImmutableMapAdaptor extends java.lang.Object implements scala.collection.mutable.Map,scala.ScalaObject,java.io.Serializable
  SourceFile: "ImmutableMapAdaptor.scala"
  Signature: length = 0x2
   03 2B 
  ScalaSig: length = 0x571
   05 00 FFFFFF81 4E 06 04 01 02 00 09 02 13 49 6D 6D 75
   74 61 62 6C 65 4D 61 70 41 64 61 70 74 6F 72 0A
   02 03 04 01 07 6D 75 74 61 62 6C 65 0A 02 05 06
   01 0A 63 6F 6C 6C 65 63 74 69 6F 6E 0A 01 07 01
   05 73 63 61 6C 61 03 00 15 03 0A 19 24 13 04 00
   0B 13 26 10 02 0C 11 0D 01 0D 0A 02 0E 0F 01 04
   6C 61 6E 67 0A 01 10 01 04 6A 61 76 61 09 02 12
   0D 02 06 4F 62 6A 65 63 74 10 04 14 15 17 23 0D
   01 02 09 02 16 02 02 03 4D 61 70 10 02 18 19 0C
   00 04 08 1A 00 FFFFFF84 FFFFFF80 FFFFFF80 FFFFFFC2 00 1B 02 01 41 11 02
   1C 20 10 02 1D 1E 0D 01 06 09 02 1F 06 02 07 4E
   6F 74 68 69 6E 67 10 02 1D 21 09 02 22 06 02 03
   41 6E 79 10 02 18 24 04 08 25 00 FFFFFF84 FFFFFF80 FFFFFF80 FFFFFFC2 00
   1B 02 01 42 10 02 1D 27 09 02 28 06 02 0B 53 63
   61 6C 61 4F 62 6A 65 63 74 08 08 2A 00 FFFFFF82 FFFFFFC0 FFFFFF80
   FFFFFF84 08 2B 01 04 69 6D 61 70 15 01 2C 10 04 2D 30
   17 23 0D 01 2E 0A 02 2F 04 01 09 69 6D 6D 75 74
   61 62 6C 65 09 02 16 2E 08 08 32 00 FFFFFF82 FFFFFFC0 FFFFFF80 FFFFFF84
   08 33 01 08 69 6D 61 70 5F 24 65 71 14 02 34 37
   10 02 1D 35 09 02 36 06 02 04 55 6E 69 74 08 07
   38 31 FFFFFF81 FFFFFF80 FFFFFFC0 00 2C 01 03 78 24 31 08 08 3A 00
   FFFFFF82 FFFFFF80 FFFFFFA0 FFFFFFA0 04 2C 01 05 69 6D 61 70 20 08 05 3C
   00 FFFFFF84 00 3D 01 06 3C 69 6E 69 74 3E 14 02 3E 3F
   10 04 14 00 17 23 08 05 2A 3B FFFFFFC0 00 2C 08 05 41
   00 FFFFFF84 20 42 01 04 73 69 7A 65 15 01 43 10 02 1D
   44 09 02 45 06 02 03 49 6E 74 08 05 47 00 FFFFFF84 00
   48 01 03 67 65 74 14 02 49 4C 10 03 1D 4A 23 09
   02 4B 06 02 06 4F 70 74 69 6F 6E 08 05 4D 46 FFFFFFC0
   00 17 01 03 6B 65 79 08 05 4F 00 FFFFFF84 20 50 01 07
   69 73 45 6D 70 74 79 15 01 51 10 02 1D 52 09 02
   53 06 02 07 42 6F 6F 6C 65 61 6E 08 05 55 00 FFFFFF84
   20 56 01 05 61 70 70 6C 79 14 02 23 57 08 05 4D
   54 FFFFFFC0 00 17 08 05 59 00 FFFFFF84 20 5A 01 08 63 6F 6E
   74 61 69 6E 73 14 02 51 5B 08 05 4D 58 FFFFFFC0 00 17
   08 05 5D 00 FFFFFF84 20 5E 01 0B 69 73 44 65 66 69 6E
   65 64 41 74 14 02 51 5F 08 05 4D 5C FFFFFFC0 00 17 08
   05 61 00 FFFFFF84 20 62 01 06 6B 65 79 53 65 74 15 01
   63 10 03 64 65 17 0D 01 04 09 02 66 04 02 03 53
   65 74 08 05 68 00 FFFFFF84 20 69 01 0C 6B 65 79 73 49
   74 65 72 61 74 6F 72 15 01 6A 10 03 64 6B 17 09
   02 6C 04 02 08 49 74 65 72 61 74 6F 72 08 05 6E
   00 FFFFFF84 20 69 01 04 6B 65 79 73 28 03 6D 70 73 10
   02 1D 71 09 02 72 06 02 0A 64 65 70 72 65 63 61
   74 65 64 21 01 74 01 1A 75 73 65 20 60 6B 65 79
   73 49 74 65 72 61 74 6F 72 27 20 69 6E 73 74 65
   61 64 08 05 76 00 FFFFFF84 20 77 01 0D 76 61 6C 75 65
   49 74 65 72 61 62 6C 65 15 01 78 10 03 64 79 23
   09 02 7A 04 02 08 49 74 65 72 61 62 6C 65 08 05
   7C 00 FFFFFF84 20 7D 01 0E 76 61 6C 75 65 73 49 74 65
   72 61 74 6F 72 15 01 7E 10 03 64 6B 23 08 06 FFFFFF81
   00 00 FFFFFF84 20 7D 01 06 76 61 6C 75 65 73 28 04 7F
   70 FFFFFF81 02 21 02 FFFFFF81 03 01 1C 75 73 65 20 60 76 61
   6C 75 65 73 49 74 65 72 61 74 6F 72 27 20 69 6E
   73 74 65 61 64 08 07 FFFFFF81 05 00 FFFFFF84 00 FFFFFF81 06 01 08
   69 74 65 72 61 74 6F 72 15 02 FFFFFF81 07 10 04 64 6B
   FFFFFF81 08 10 05 1D FFFFFF81 09 17 23 09 03 FFFFFF81 0A 06 02 06
   54 75 70 6C 65 32 08 07 FFFFFF81 0C 00 FFFFFF84 20 FFFFFF81 06 01
   08 65 6C 65 6D 65 6E 74 73 28 05 FFFFFF81 0B 70 FFFFFF81 0E
   21 02 FFFFFF81 0F 01 16 75 73 65 20 60 69 74 65 72 61
   74 6F 72 27 20 69 6E 73 74 65 61 64 08 07 FFFFFF81 11
   00 FFFFFF84 20 FFFFFF81 12 01 06 74 6F 4C 69 73 74 15 02 FFFFFF81
   13 10 06 FFFFFF81 14 FFFFFF81 1C FFFFFF81 08 0E 04 FFFFFF81 15 FFFFFF81 1A 0E
   04 FFFFFF81 16 FFFFFF81 19 0D 02 FFFFFF81 17 0A 03 FFFFFF81 18 08 01 06
   3C 72 6F 6F 74 3E 09 01 07 09 03 FFFFFF81 1B 06 01 07
   70 61 63 6B 61 67 65 09 04 FFFFFF81 1D FFFFFF81 1E 02 04 4C
   69 73 74 0A 03 FFFFFF81 1B 06 08 07 FFFFFF81 20 00 FFFFFF84 20 FFFFFF81
   21 01 06 75 70 64 61 74 65 14 05 34 FFFFFF81 22 FFFFFF81 23
   08 06 4D FFFFFF81 1F FFFFFFC0 00 17 08 07 FFFFFF81 24 FFFFFF81 1F FFFFFFC0 00
   23 01 05 76 61 6C 75 65 08 07 FFFFFF81 26 00 FFFFFF84 00 FFFFFF81
   27 01 09 24 6D 69 6E 75 73 24 65 71 14 04 FFFFFF81 28
   FFFFFF81 29 0D 01 00 08 06 4D FFFFFF81 25 FFFFFFC0 00 17 08 07 FFFFFF81
   2B 00 FFFFFF84 00 FFFFFF81 2C 01 08 24 70 6C 75 73 24 65 71
   14 04 FFFFFF81 28 FFFFFF81 2D 08 08 FFFFFF81 2E FFFFFF81 2A FFFFFFC0 00 FFFFFF81 08
   01 02 6B 76 08 07 FFFFFF81 30 00 FFFFFF84 20 FFFFFF81 31 01 05 63
   6C 65 61 72 14 01 34 08 07 FFFFFF81 33 00 FFFFFF84 20 FFFFFF81 34
   01 09 74 72 61 6E 73 66 6F 72 6D 14 04 FFFFFF81 28 FFFFFF81
   35 08 08 FFFFFF81 36 FFFFFF81 32 FFFFFFC0 00 FFFFFF81 37 01 01 66 10 06
   1D FFFFFF81 38 17 23 23 09 03 FFFFFF81 39 06 02 09 46 75 6E
   63 74 69 6F 6E 32 08 07 FFFFFF81 3B 00 FFFFFF84 20 FFFFFF81 3C 01
   06 72 65 74 61 69 6E 14 04 FFFFFF81 28 FFFFFF81 3D 08 08 FFFFFF81
   3E FFFFFF81 3A FFFFFFC0 00 FFFFFF81 3F 01 01 70 10 06 1D FFFFFF81 38 17
   23 51 08 07 FFFFFF81 41 00 FFFFFF84 20 FFFFFF81 42 01 08 74 6F 53
   74 72 69 6E 67 14 02 FFFFFF81 43 10 04 FFFFFF81 44 FFFFFF81 47 0E
   03 1D FFFFFF81 45 09 03 FFFFFF81 46 06 01 06 50 72 65 64 65
   66 09 04 FFFFFF81 48 FFFFFF81 49 02 06 53 74 72 69 6E 67 0A
   03 FFFFFF81 46 06 28 03 00 FFFFFF81 4B 10 03 1D FFFFFF81 4C 09 03
   FFFFFF81 4D 06 02 0C 73 65 72 69 61 6C 69 7A 61 62 6C
   65 
  InnerClass: 
   public final #814= #250 of #12; //$anonfun$retain$1=class scala/collection/mutable/ImmutableMapAdaptor$$anonfun$retain$1 of class scala/collection/mutable/ImmutableMapAdaptor
  minor version: 0
  major version: 49
  Constant pool:
const #1 = Asciz	SourceFile;
const #2 = Asciz	ImmutableMapAdaptor.scala;
const #3 = Asciz	imap;
const #4 = Asciz	Lscala/collection/immutable/Map;;
const #5 = Asciz	Lscala/collection/immutable/Map<TA;TB;>;;
const #6 = Asciz	Signature;
const #7 = Asciz	<init>;
const #8 = Asciz	(Lscala/collection/immutable/Map;)V;
const #9 = Asciz	Code;
const #10 = Asciz	LineNumberTable;
const #11 = Asciz	scala/collection/mutable/ImmutableMapAdaptor;
const #12 = class	#11;	//  scala/collection/mutable/ImmutableMapAdaptor
const #13 = NameAndType	#3:#4;//  imap:Lscala/collection/immutable/Map;
const #14 = Field	#12.#13;	//  scala/collection/mutable/ImmutableMapAdaptor.imap:Lscala/collection/immutable/Map;
const #15 = Asciz	java/lang/Object;
const #16 = class	#15;	//  java/lang/Object
const #17 = Asciz	()V;
const #18 = NameAndType	#7:#17;//  "<init>":()V
const #19 = Method	#16.#18;	//  java/lang/Object."<init>":()V
const #20 = Asciz	scala/collection/generic/TraversableTemplate$class;
const #21 = class	#20;	//  scala/collection/generic/TraversableTemplate$class
const #22 = Asciz	$init$;
const #23 = Asciz	(Lscala/collection/generic/TraversableTemplate;)V;
const #24 = NameAndType	#22:#23;//  $init$:(Lscala/collection/generic/TraversableTemplate;)V
const #25 = Method	#21.#24;	//  scala/collection/generic/TraversableTemplate$class.$init$:(Lscala/collection/generic/TraversableTemplate;)V
const #26 = Asciz	scala/collection/generic/TraversableClass$class;
const #27 = class	#26;	//  scala/collection/generic/TraversableClass$class
const #28 = Asciz	(Lscala/collection/generic/TraversableClass;)V;
const #29 = NameAndType	#22:#28;//  $init$:(Lscala/collection/generic/TraversableClass;)V
const #30 = Method	#27.#29;	//  scala/collection/generic/TraversableClass$class.$init$:(Lscala/collection/generic/TraversableClass;)V
const #31 = Asciz	scala/collection/Traversable$class;
const #32 = class	#31;	//  scala/collection/Traversable$class
const #33 = Asciz	(Lscala/collection/Traversable;)V;
const #34 = NameAndType	#22:#33;//  $init$:(Lscala/collection/Traversable;)V
const #35 = Method	#32.#34;	//  scala/collection/Traversable$class.$init$:(Lscala/collection/Traversable;)V
const #36 = Asciz	scala/collection/mutable/Traversable$class;
const #37 = class	#36;	//  scala/collection/mutable/Traversable$class
const #38 = Asciz	(Lscala/collection/mutable/Traversable;)V;
const #39 = NameAndType	#22:#38;//  $init$:(Lscala/collection/mutable/Traversable;)V
const #40 = Method	#37.#39;	//  scala/collection/mutable/Traversable$class.$init$:(Lscala/collection/mutable/Traversable;)V
const #41 = Asciz	scala/collection/generic/IterableTemplate$class;
const #42 = class	#41;	//  scala/collection/generic/IterableTemplate$class
const #43 = Asciz	(Lscala/collection/generic/IterableTemplate;)V;
const #44 = NameAndType	#22:#43;//  $init$:(Lscala/collection/generic/IterableTemplate;)V
const #45 = Method	#42.#44;	//  scala/collection/generic/IterableTemplate$class.$init$:(Lscala/collection/generic/IterableTemplate;)V
const #46 = Asciz	scala/collection/Iterable$class;
const #47 = class	#46;	//  scala/collection/Iterable$class
const #48 = Asciz	(Lscala/collection/Iterable;)V;
const #49 = NameAndType	#22:#48;//  $init$:(Lscala/collection/Iterable;)V
const #50 = Method	#47.#49;	//  scala/collection/Iterable$class.$init$:(Lscala/collection/Iterable;)V
const #51 = Asciz	scala/collection/mutable/Iterable$class;
const #52 = class	#51;	//  scala/collection/mutable/Iterable$class
const #53 = Asciz	(Lscala/collection/mutable/Iterable;)V;
const #54 = NameAndType	#22:#53;//  $init$:(Lscala/collection/mutable/Iterable;)V
const #55 = Method	#52.#54;	//  scala/collection/mutable/Iterable$class.$init$:(Lscala/collection/mutable/Iterable;)V
const #56 = Asciz	scala/Function1$class;
const #57 = class	#56;	//  scala/Function1$class
const #58 = Asciz	(Lscala/Function1;)V;
const #59 = NameAndType	#22:#58;//  $init$:(Lscala/Function1;)V
const #60 = Method	#57.#59;	//  scala/Function1$class.$init$:(Lscala/Function1;)V
const #61 = Asciz	scala/PartialFunction$class;
const #62 = class	#61;	//  scala/PartialFunction$class
const #63 = Asciz	(Lscala/PartialFunction;)V;
const #64 = NameAndType	#22:#63;//  $init$:(Lscala/PartialFunction;)V
const #65 = Method	#62.#64;	//  scala/PartialFunction$class.$init$:(Lscala/PartialFunction;)V
const #66 = Asciz	scala/collection/generic/Subtractable$class;
const #67 = class	#66;	//  scala/collection/generic/Subtractable$class
const #68 = Asciz	(Lscala/collection/generic/Subtractable;)V;
const #69 = NameAndType	#22:#68;//  $init$:(Lscala/collection/generic/Subtractable;)V
const #70 = Method	#67.#69;	//  scala/collection/generic/Subtractable$class.$init$:(Lscala/collection/generic/Subtractable;)V
const #71 = Asciz	scala/collection/generic/MapTemplate$class;
const #72 = class	#71;	//  scala/collection/generic/MapTemplate$class
const #73 = Asciz	(Lscala/collection/generic/MapTemplate;)V;
const #74 = NameAndType	#22:#73;//  $init$:(Lscala/collection/generic/MapTemplate;)V
const #75 = Method	#72.#74;	//  scala/collection/generic/MapTemplate$class.$init$:(Lscala/collection/generic/MapTemplate;)V
const #76 = Asciz	scala/collection/Map$class;
const #77 = class	#76;	//  scala/collection/Map$class
const #78 = Asciz	(Lscala/collection/Map;)V;
const #79 = NameAndType	#22:#78;//  $init$:(Lscala/collection/Map;)V
const #80 = Method	#77.#79;	//  scala/collection/Map$class.$init$:(Lscala/collection/Map;)V
const #81 = Asciz	scala/collection/generic/Cloneable$class;
const #82 = class	#81;	//  scala/collection/generic/Cloneable$class
const #83 = Asciz	(Lscala/collection/generic/Cloneable;)V;
const #84 = NameAndType	#22:#83;//  $init$:(Lscala/collection/generic/Cloneable;)V
const #85 = Method	#82.#84;	//  scala/collection/generic/Cloneable$class.$init$:(Lscala/collection/generic/Cloneable;)V
const #86 = Asciz	scala/collection/generic/MutableMapTemplateBase$class;
const #87 = class	#86;	//  scala/collection/generic/MutableMapTemplateBase$class
const #88 = Asciz	(Lscala/collection/generic/MutableMapTemplateBase;)V;
const #89 = NameAndType	#22:#88;//  $init$:(Lscala/collection/generic/MutableMapTemplateBase;)V
const #90 = Method	#87.#89;	//  scala/collection/generic/MutableMapTemplateBase$class.$init$:(Lscala/collection/generic/MutableMapTemplateBase;)V
const #91 = Asciz	scala/collection/generic/Growable$class;
const #92 = class	#91;	//  scala/collection/generic/Growable$class
const #93 = Asciz	(Lscala/collection/generic/Growable;)V;
const #94 = NameAndType	#22:#93;//  $init$:(Lscala/collection/generic/Growable;)V
const #95 = Method	#92.#94;	//  scala/collection/generic/Growable$class.$init$:(Lscala/collection/generic/Growable;)V
const #96 = Asciz	scala/collection/generic/Builder$class;
const #97 = class	#96;	//  scala/collection/generic/Builder$class
const #98 = Asciz	(Lscala/collection/generic/Builder;)V;
const #99 = NameAndType	#22:#98;//  $init$:(Lscala/collection/generic/Builder;)V
const #100 = Method	#97.#99;	//  scala/collection/generic/Builder$class.$init$:(Lscala/collection/generic/Builder;)V
const #101 = Asciz	scala/collection/generic/Shrinkable$class;
const #102 = class	#101;	//  scala/collection/generic/Shrinkable$class
const #103 = Asciz	(Lscala/collection/generic/Shrinkable;)V;
const #104 = NameAndType	#22:#103;//  $init$:(Lscala/collection/generic/Shrinkable;)V
const #105 = Method	#102.#104;	//  scala/collection/generic/Shrinkable$class.$init$:(Lscala/collection/generic/Shrinkable;)V
const #106 = Asciz	scala/collection/generic/MutableMapTemplate$class;
const #107 = class	#106;	//  scala/collection/generic/MutableMapTemplate$class
const #108 = Asciz	(Lscala/collection/generic/MutableMapTemplate;)V;
const #109 = NameAndType	#22:#108;//  $init$:(Lscala/collection/generic/MutableMapTemplate;)V
const #110 = Method	#107.#109;	//  scala/collection/generic/MutableMapTemplate$class.$init$:(Lscala/collection/generic/MutableMapTemplate;)V
const #111 = Asciz	scala/Unhashable$class;
const #112 = class	#111;	//  scala/Unhashable$class
const #113 = Asciz	(Lscala/Unhashable;)V;
const #114 = NameAndType	#22:#113;//  $init$:(Lscala/Unhashable;)V
const #115 = Method	#112.#114;	//  scala/Unhashable$class.$init$:(Lscala/Unhashable;)V
const #116 = Asciz	scala/collection/mutable/Map$class;
const #117 = class	#116;	//  scala/collection/mutable/Map$class
const #118 = Asciz	(Lscala/collection/mutable/Map;)V;
const #119 = NameAndType	#22:#118;//  $init$:(Lscala/collection/mutable/Map;)V
const #120 = Method	#117.#119;	//  scala/collection/mutable/Map$class.$init$:(Lscala/collection/mutable/Map;)V
const #121 = Asciz	this;
const #122 = Asciz	Lscala/collection/mutable/ImmutableMapAdaptor;;
const #123 = Asciz	LocalVariableTable;
const #124 = Asciz	(Lscala/collection/immutable/Map<TA;TB;>;)V;
const #125 = Asciz	$minus$eq;
const #126 = Asciz	(Ljava/lang/Object;)Lscala/collection/generic/MutableMapTemplate;;
const #127 = Asciz	(Ljava/lang/Object;)Lscala/collection/mutable/ImmutableMapAdaptor;;
const #128 = NameAndType	#125:#127;//  $minus$eq:(Ljava/lang/Object;)Lscala/collection/mutable/ImmutableMapAdaptor;
const #129 = Method	#12.#128;	//  scala/collection/mutable/ImmutableMapAdaptor.$minus$eq:(Ljava/lang/Object;)Lscala/collection/mutable/ImmutableMapAdaptor;
const #130 = Asciz	key;
const #131 = Asciz	Ljava/lang/Object;;
const #132 = Asciz	(Ljava/lang/Object;)Lscala/collection/generic/Shrinkable;;
const #133 = Asciz	elem;
const #134 = Asciz	$plus$eq;
const #135 = Asciz	(Lscala/Tuple2;)Lscala/collection/generic/MutableMapTemplate;;
const #136 = Asciz	(Lscala/Tuple2;)Lscala/collection/mutable/ImmutableMapAdaptor;;
const #137 = NameAndType	#134:#136;//  $plus$eq:(Lscala/Tuple2;)Lscala/collection/mutable/ImmutableMapAdaptor;
const #138 = Method	#12.#137;	//  scala/collection/mutable/ImmutableMapAdaptor.$plus$eq:(Lscala/Tuple2;)Lscala/collection/mutable/ImmutableMapAdaptor;
const #139 = Asciz	kv;
const #140 = Asciz	Lscala/Tuple2;;
const #141 = Asciz	(Ljava/lang/Object;)Lscala/collection/generic/Builder;;
const #142 = Asciz	scala/Tuple2;
const #143 = class	#142;	//  scala/Tuple2
const #144 = Asciz	(Ljava/lang/Object;)Lscala/collection/generic/Growable;;
const #145 = Asciz	transform;
const #146 = Asciz	(Lscala/Function2;)Lscala/collection/generic/MutableMapTemplate;;
const #147 = Asciz	(Lscala/Function2;)Lscala/collection/mutable/ImmutableMapAdaptor;;
const #148 = NameAndType	#145:#147;//  transform:(Lscala/Function2;)Lscala/collection/mutable/ImmutableMapAdaptor;
const #149 = Method	#12.#148;	//  scala/collection/mutable/ImmutableMapAdaptor.transform:(Lscala/Function2;)Lscala/collection/mutable/ImmutableMapAdaptor;
const #150 = Asciz	f;
const #151 = Asciz	Lscala/Function2;;
const #152 = Asciz	retain;
const #153 = NameAndType	#152:#147;//  retain:(Lscala/Function2;)Lscala/collection/mutable/ImmutableMapAdaptor;
const #154 = Method	#12.#153;	//  scala/collection/mutable/ImmutableMapAdaptor.retain:(Lscala/Function2;)Lscala/collection/mutable/ImmutableMapAdaptor;
const #155 = Asciz	p;
const #156 = Asciz	empty;
const #157 = Asciz	()Lscala/collection/Map;;
const #158 = Asciz	scala/collection/mutable/Map;
const #159 = class	#158;	//  scala/collection/mutable/Map
const #160 = Asciz	()Lscala/collection/mutable/Map;;
const #161 = NameAndType	#156:#160;//  empty:()Lscala/collection/mutable/Map;
const #162 = InterfaceMethod	#159.#161;	//  scala/collection/mutable/Map.empty:()Lscala/collection/mutable/Map;
const #163 = Asciz	()Lscala/collection/generic/MapTemplate;;
const #164 = Asciz	updated;
const #165 = Asciz	(Ljava/lang/Object;Ljava/lang/Object;)Lscala/collection/Map;;
const #166 = Asciz	scala/collection/generic/MutableMapTemplate;
const #167 = class	#166;	//  scala/collection/generic/MutableMapTemplate
const #168 = Asciz	(Ljava/lang/Object;Ljava/lang/Object;)Lscala/collection/mutable/Map;;
const #169 = NameAndType	#164:#168;//  updated:(Ljava/lang/Object;Ljava/lang/Object;)Lscala/collection/mutable/Map;
const #170 = InterfaceMethod	#167.#169;	//  scala/collection/generic/MutableMapTemplate.updated:(Ljava/lang/Object;Ljava/lang/Object;)Lscala/collection/mutable/Map;
const #171 = Asciz	value;
const #172 = Asciz	$minus;
const #173 = Asciz	(Ljava/lang/Object;)Lscala/collection/generic/MapTemplate;;
const #174 = NameAndType	#172:#126;//  $minus:(Ljava/lang/Object;)Lscala/collection/generic/MutableMapTemplate;
const #175 = InterfaceMethod	#167.#174;	//  scala/collection/generic/MutableMapTemplate.$minus:(Ljava/lang/Object;)Lscala/collection/generic/MutableMapTemplate;
const #176 = Asciz	(Ljava/lang/Object;)Lscala/collection/generic/Subtractable;;
const #177 = Asciz	clone;
const #178 = Asciz	()Ljava/lang/Object;;
const #179 = Asciz	()Lscala/collection/generic/MutableMapTemplate;;
const #180 = NameAndType	#177:#179;//  clone:()Lscala/collection/generic/MutableMapTemplate;
const #181 = InterfaceMethod	#167.#180;	//  scala/collection/generic/MutableMapTemplate.clone:()Lscala/collection/generic/MutableMapTemplate;
const #182 = Asciz	result;
const #183 = NameAndType	#182:#179;//  result:()Lscala/collection/generic/MutableMapTemplate;
const #184 = InterfaceMethod	#167.#183;	//  scala/collection/generic/MutableMapTemplate.result:()Lscala/collection/generic/MutableMapTemplate;
const #185 = Asciz	(Ljava/lang/Object;Ljava/lang/Object;Lscala/collection/Sequence;)Lscala/collection/generic/Subtractable;;
const #186 = Asciz	(Ljava/lang/Object;Ljava/lang/Object;Lscala/collection/Sequence;)Lscala/collection/generic/MutableMapTemplate;;
const #187 = NameAndType	#172:#186;//  $minus:(Ljava/lang/Object;Ljava/lang/Object;Lscala/collection/Sequence;)Lscala/collection/generic/MutableMapTemplate;
const #188 = InterfaceMethod	#167.#187;	//  scala/collection/generic/MutableMapTemplate.$minus:(Ljava/lang/Object;Ljava/lang/Object;Lscala/collection/Sequence;)Lscala/collection/generic/MutableMapTemplate;
const #189 = Asciz	elem1;
const #190 = Asciz	elem2;
const #191 = Asciz	elems;
const #192 = Asciz	Lscala/collection/Sequence;;
const #193 = Asciz	$minus$minus;
const #194 = Asciz	(Lscala/collection/Traversable;)Lscala/collection/generic/Subtractable;;
const #195 = Asciz	(Lscala/collection/Traversable;)Lscala/collection/generic/MutableMapTemplate;;
const #196 = NameAndType	#193:#195;//  $minus$minus:(Lscala/collection/Traversable;)Lscala/collection/generic/MutableMapTemplate;
const #197 = InterfaceMethod	#167.#196;	//  scala/collection/generic/MutableMapTemplate.$minus$minus:(Lscala/collection/Traversable;)Lscala/collection/generic/MutableMapTemplate;
const #198 = Asciz	Lscala/collection/Traversable;;
const #199 = Asciz	(Lscala/collection/Iterator;)Lscala/collection/generic/Subtractable;;
const #200 = Asciz	(Lscala/collection/Iterator;)Lscala/collection/generic/MutableMapTemplate;;
const #201 = NameAndType	#193:#200;//  $minus$minus:(Lscala/collection/Iterator;)Lscala/collection/generic/MutableMapTemplate;
const #202 = InterfaceMethod	#167.#201;	//  scala/collection/generic/MutableMapTemplate.$minus$minus:(Lscala/collection/Iterator;)Lscala/collection/generic/MutableMapTemplate;
const #203 = Asciz	iter;
const #204 = Asciz	Lscala/collection/Iterator;;
const #205 = Asciz	$plus;
const #206 = Asciz	(Lscala/Tuple2;)Lscala/collection/Map;;
const #207 = Asciz	scala/collection/generic/MutableMapTemplateBase;
const #208 = class	#207;	//  scala/collection/generic/MutableMapTemplateBase
const #209 = Asciz	(Lscala/Tuple2;)Lscala/collection/mutable/Map;;
const #210 = NameAndType	#205:#209;//  $plus:(Lscala/Tuple2;)Lscala/collection/mutable/Map;
const #211 = InterfaceMethod	#208.#210;	//  scala/collection/generic/MutableMapTemplateBase.$plus:(Lscala/Tuple2;)Lscala/collection/mutable/Map;
const #212 = Asciz	andThen;
const #213 = Asciz	(Lscala/Function1;)Lscala/Function1;;
const #214 = Asciz	scala/PartialFunction;
const #215 = class	#214;	//  scala/PartialFunction
const #216 = Asciz	(Lscala/Function1;)Lscala/PartialFunction;;
const #217 = NameAndType	#212:#216;//  andThen:(Lscala/Function1;)Lscala/PartialFunction;
const #218 = InterfaceMethod	#215.#217;	//  scala/PartialFunction.andThen:(Lscala/Function1;)Lscala/PartialFunction;
const #219 = Asciz	g;
const #220 = Asciz	Lscala/Function1;;
const #221 = Asciz	view;
const #222 = Asciz	(II)Lscala/collection/generic/TraversableView;;
const #223 = Asciz	scala/collection/generic/IterableTemplate;
const #224 = class	#223;	//  scala/collection/generic/IterableTemplate
const #225 = Asciz	(II)Lscala/collection/generic/IterableView;;
const #226 = NameAndType	#221:#225;//  view:(II)Lscala/collection/generic/IterableView;
const #227 = InterfaceMethod	#224.#226;	//  scala/collection/generic/IterableTemplate.view:(II)Lscala/collection/generic/IterableView;
const #228 = Asciz	from;
const #229 = Asciz	I;
const #230 = Asciz	until;
const #231 = Asciz	thisCollection;
const #232 = Asciz	()Lscala/collection/generic/Subtractable;;
const #233 = Asciz	scala/collection/generic/TraversableTemplate;
const #234 = class	#233;	//  scala/collection/generic/TraversableTemplate
const #235 = Asciz	()Lscala/collection/generic/TraversableTemplate;;
const #236 = NameAndType	#231:#235;//  thisCollection:()Lscala/collection/generic/TraversableTemplate;
const #237 = InterfaceMethod	#234.#236;	//  scala/collection/generic/TraversableTemplate.thisCollection:()Lscala/collection/generic/TraversableTemplate;
const #238 = Asciz	scala/collection/generic/Subtractable;
const #239 = class	#238;	//  scala/collection/generic/Subtractable
const #240 = Asciz	toString;
const #241 = Asciz	()Ljava/lang/String;;
const #242 = Asciz	()Lscala/collection/immutable/Map;;
const #243 = NameAndType	#3:#242;//  imap:()Lscala/collection/immutable/Map;
const #244 = Method	#12.#243;	//  scala/collection/mutable/ImmutableMapAdaptor.imap:()Lscala/collection/immutable/Map;
const #245 = Asciz	scala/collection/generic/MapTemplate;
const #246 = class	#245;	//  scala/collection/generic/MapTemplate
const #247 = NameAndType	#240:#241;//  toString:()Ljava/lang/String;
const #248 = InterfaceMethod	#246.#247;	//  scala/collection/generic/MapTemplate.toString:()Ljava/lang/String;
const #249 = Asciz	scala/collection/mutable/ImmutableMapAdaptor$$anonfun$retain$1;
const #250 = class	#249;	//  scala/collection/mutable/ImmutableMapAdaptor$$anonfun$retain$1
const #251 = Asciz	(Lscala/collection/mutable/ImmutableMapAdaptor;Lscala/Function2;)V;
const #252 = NameAndType	#7:#251;//  "<init>":(Lscala/collection/mutable/ImmutableMapAdaptor;Lscala/Function2;)V
const #253 = Method	#250.#252;	//  scala/collection/mutable/ImmutableMapAdaptor$$anonfun$retain$1."<init>":(Lscala/collection/mutable/ImmutableMapAdaptor;Lscala/Function2;)V
const #254 = Asciz	filter;
const #255 = Asciz	(Lscala/Function1;)Lscala/collection/generic/TraversableTemplate;;
const #256 = NameAndType	#254:#255;//  filter:(Lscala/Function1;)Lscala/collection/generic/TraversableTemplate;
const #257 = InterfaceMethod	#234.#256;	//  scala/collection/generic/TraversableTemplate.filter:(Lscala/Function1;)Lscala/collection/generic/TraversableTemplate;
const #258 = Asciz	scala/collection/immutable/Map;
const #259 = class	#258;	//  scala/collection/immutable/Map
const #260 = Asciz	imap_$eq;
const #261 = NameAndType	#260:#8;//  imap_$eq:(Lscala/collection/immutable/Map;)V
const #262 = Method	#12.#261;	//  scala/collection/mutable/ImmutableMapAdaptor.imap_$eq:(Lscala/collection/immutable/Map;)V
const #263 = Asciz	p$1;
const #264 = Asciz	(Lscala/Function2<TA;TB;Ljava/lang/Boolean;>;)Lscala/collection/mutable/ImmutableMapAdaptor<TA;TB;>;;
const #265 = Asciz	scala/collection/immutable/Map$;
const #266 = class	#265;	//  scala/collection/immutable/Map$
const #267 = Asciz	MODULE$;
const #268 = Asciz	Lscala/collection/immutable/Map$;;
const #269 = NameAndType	#267:#268;//  MODULE$:Lscala/collection/immutable/Map$;
const #270 = Field	#266.#269;	//  scala/collection/immutable/Map$.MODULE$:Lscala/collection/immutable/Map$;
const #271 = Asciz	builderFactory;
const #272 = Asciz	()Lscala/collection/generic/BuilderFactory;;
const #273 = NameAndType	#271:#272;//  builderFactory:()Lscala/collection/generic/BuilderFactory;
const #274 = Method	#266.#273;	//  scala/collection/immutable/Map$.builderFactory:()Lscala/collection/generic/BuilderFactory;
const #275 = Asciz	scala/collection/generic/ImmutableMapTemplate;
const #276 = class	#275;	//  scala/collection/generic/ImmutableMapTemplate
const #277 = Asciz	(Lscala/Function2;Lscala/collection/generic/BuilderFactory;)Ljava/lang/Object;;
const #278 = NameAndType	#145:#277;//  transform:(Lscala/Function2;Lscala/collection/generic/BuilderFactory;)Ljava/lang/Object;
const #279 = InterfaceMethod	#276.#278;	//  scala/collection/generic/ImmutableMapTemplate.transform:(Lscala/Function2;Lscala/collection/generic/BuilderFactory;)Ljava/lang/Object;
const #280 = Asciz	(Lscala/Function2<TA;TB;TB;>;)Lscala/collection/mutable/ImmutableMapAdaptor<TA;TB;>;;
const #281 = Asciz	clear;
const #282 = NameAndType	#156:#242;//  empty:()Lscala/collection/immutable/Map;
const #283 = InterfaceMethod	#259.#282;	//  scala/collection/immutable/Map.empty:()Lscala/collection/immutable/Map;
const #284 = Asciz	(Lscala/Tuple2;)Lscala/collection/immutable/Map;;
const #285 = NameAndType	#205:#284;//  $plus:(Lscala/Tuple2;)Lscala/collection/immutable/Map;
const #286 = InterfaceMethod	#259.#285;	//  scala/collection/immutable/Map.$plus:(Lscala/Tuple2;)Lscala/collection/immutable/Map;
const #287 = Asciz	(Lscala/Tuple2<TA;TB;>;)Lscala/collection/mutable/ImmutableMapAdaptor<TA;TB;>;;
const #288 = NameAndType	#172:#173;//  $minus:(Ljava/lang/Object;)Lscala/collection/generic/MapTemplate;
const #289 = InterfaceMethod	#246.#288;	//  scala/collection/generic/MapTemplate.$minus:(Ljava/lang/Object;)Lscala/collection/generic/MapTemplate;
const #290 = Asciz	(TA;)Lscala/collection/mutable/ImmutableMapAdaptor<TA;TB;>;;
const #291 = Asciz	update;
const #292 = Asciz	(Ljava/lang/Object;Ljava/lang/Object;)V;
const #293 = Asciz	(Ljava/lang/Object;Ljava/lang/Object;)Lscala/collection/immutable/Map;;
const #294 = NameAndType	#291:#293;//  update:(Ljava/lang/Object;Ljava/lang/Object;)Lscala/collection/immutable/Map;
const #295 = InterfaceMethod	#276.#294;	//  scala/collection/generic/ImmutableMapTemplate.update:(Ljava/lang/Object;Ljava/lang/Object;)Lscala/collection/immutable/Map;
const #296 = Asciz	(TA;TB;)V;
const #297 = Asciz	toList;
const #298 = Asciz	()Lscala/collection/immutable/List;;
const #299 = NameAndType	#297:#298;//  toList:()Lscala/collection/immutable/List;
const #300 = InterfaceMethod	#234.#299;	//  scala/collection/generic/TraversableTemplate.toList:()Lscala/collection/immutable/List;
const #301 = Asciz	()Lscala/collection/immutable/List<Lscala/Tuple2<TA;TB;>;>;;
const #302 = Asciz	elements;
const #303 = Asciz	()Lscala/collection/Iterator;;
const #304 = Asciz	iterator;
const #305 = NameAndType	#304:#303;//  iterator:()Lscala/collection/Iterator;
const #306 = Method	#12.#305;	//  scala/collection/mutable/ImmutableMapAdaptor.iterator:()Lscala/collection/Iterator;
const #307 = Asciz	()Lscala/collection/Iterator<Lscala/Tuple2<TA;TB;>;>;;
const #308 = InterfaceMethod	#246.#305;	//  scala/collection/generic/MapTemplate.iterator:()Lscala/collection/Iterator;
const #309 = Asciz	values;
const #310 = Asciz	valuesIterator;
const #311 = NameAndType	#310:#303;//  valuesIterator:()Lscala/collection/Iterator;
const #312 = InterfaceMethod	#246.#311;	//  scala/collection/generic/MapTemplate.valuesIterator:()Lscala/collection/Iterator;
const #313 = Asciz	()Lscala/collection/Iterator<TB;>;;
const #314 = Asciz	valueIterable;
const #315 = Asciz	()Lscala/collection/Iterable;;
const #316 = NameAndType	#314:#315;//  valueIterable:()Lscala/collection/Iterable;
const #317 = InterfaceMethod	#246.#316;	//  scala/collection/generic/MapTemplate.valueIterable:()Lscala/collection/Iterable;
const #318 = Asciz	()Lscala/collection/Iterable<TB;>;;
const #319 = Asciz	keys;
const #320 = Asciz	keysIterator;
const #321 = NameAndType	#320:#303;//  keysIterator:()Lscala/collection/Iterator;
const #322 = InterfaceMethod	#246.#321;	//  scala/collection/generic/MapTemplate.keysIterator:()Lscala/collection/Iterator;
const #323 = Asciz	()Lscala/collection/Iterator<TA;>;;
const #324 = Asciz	keySet;
const #325 = Asciz	()Lscala/collection/Set;;
const #326 = NameAndType	#324:#325;//  keySet:()Lscala/collection/Set;
const #327 = InterfaceMethod	#246.#326;	//  scala/collection/generic/MapTemplate.keySet:()Lscala/collection/Set;
const #328 = Asciz	()Lscala/collection/Set<TA;>;;
const #329 = Asciz	isDefinedAt;
const #330 = Asciz	(Ljava/lang/Object;)Z;
const #331 = NameAndType	#329:#330;//  isDefinedAt:(Ljava/lang/Object;)Z
const #332 = InterfaceMethod	#246.#331;	//  scala/collection/generic/MapTemplate.isDefinedAt:(Ljava/lang/Object;)Z
const #333 = Asciz	(TA;)Z;
const #334 = Asciz	contains;
const #335 = NameAndType	#334:#330;//  contains:(Ljava/lang/Object;)Z
const #336 = InterfaceMethod	#246.#335;	//  scala/collection/generic/MapTemplate.contains:(Ljava/lang/Object;)Z
const #337 = Asciz	apply;
const #338 = Asciz	(Ljava/lang/Object;)Ljava/lang/Object;;
const #339 = NameAndType	#337:#338;//  apply:(Ljava/lang/Object;)Ljava/lang/Object;
const #340 = InterfaceMethod	#246.#339;	//  scala/collection/generic/MapTemplate.apply:(Ljava/lang/Object;)Ljava/lang/Object;
const #341 = Asciz	(TA;)TB;;
const #342 = Asciz	isEmpty;
const #343 = Asciz	()Z;
const #344 = NameAndType	#342:#343;//  isEmpty:()Z
const #345 = InterfaceMethod	#246.#344;	//  scala/collection/generic/MapTemplate.isEmpty:()Z
const #346 = Asciz	get;
const #347 = Asciz	(Ljava/lang/Object;)Lscala/Option;;
const #348 = NameAndType	#346:#347;//  get:(Ljava/lang/Object;)Lscala/Option;
const #349 = InterfaceMethod	#246.#348;	//  scala/collection/generic/MapTemplate.get:(Ljava/lang/Object;)Lscala/Option;
const #350 = Asciz	(TA;)Lscala/Option<TB;>;;
const #351 = Asciz	size;
const #352 = Asciz	()I;
const #353 = NameAndType	#351:#352;//  size:()I
const #354 = InterfaceMethod	#234.#353;	//  scala/collection/generic/TraversableTemplate.size:()I
const #355 = Asciz	()Lscala/collection/immutable/Map<TA;TB;>;;
const #356 = Asciz	addString;
const #357 = Asciz	(Lscala/collection/mutable/StringBuilder;)Lscala/collection/mutable/StringBuilder;;
const #358 = Asciz	(Lscala/collection/generic/TraversableTemplate;Lscala/collection/mutable/StringBuilder;)Lscala/collection/mutable/StringBuilder;;
const #359 = NameAndType	#356:#358;//  addString:(Lscala/collection/generic/TraversableTemplate;Lscala/collection/mutable/StringBuilder;)Lscala/collection/mutable/StringBuilder;
const #360 = Method	#21.#359;	//  scala/collection/generic/TraversableTemplate$class.addString:(Lscala/collection/generic/TraversableTemplate;Lscala/collection/mutable/StringBuilder;)Lscala/collection/mutable/StringBuilder;
const #361 = Asciz	b;
const #362 = Asciz	Lscala/collection/mutable/StringBuilder;;
const #363 = Asciz	(Lscala/collection/mutable/StringBuilder;Ljava/lang/String;)Lscala/collection/mutable/StringBuilder;;
const #364 = Asciz	(Lscala/collection/generic/TraversableTemplate;Lscala/collection/mutable/StringBuilder;Ljava/lang/String;)Lscala/collection/mutable/StringBuilder;;
const #365 = NameAndType	#356:#364;//  addString:(Lscala/collection/generic/TraversableTemplate;Lscala/collection/mutable/StringBuilder;Ljava/lang/String;)Lscala/collection/mutable/StringBuilder;
const #366 = Method	#21.#365;	//  scala/collection/generic/TraversableTemplate$class.addString:(Lscala/collection/generic/TraversableTemplate;Lscala/collection/mutable/StringBuilder;Ljava/lang/String;)Lscala/collection/mutable/StringBuilder;
const #367 = Asciz	sep;
const #368 = Asciz	Ljava/lang/String;;
const #369 = Asciz	mkString;
const #370 = Asciz	(Lscala/collection/generic/TraversableTemplate;)Ljava/lang/String;;
const #371 = NameAndType	#369:#370;//  mkString:(Lscala/collection/generic/TraversableTemplate;)Ljava/lang/String;
const #372 = Method	#21.#371;	//  scala/collection/generic/TraversableTemplate$class.mkString:(Lscala/collection/generic/TraversableTemplate;)Ljava/lang/String;
const #373 = Asciz	(Ljava/lang/String;)Ljava/lang/String;;
const #374 = Asciz	(Lscala/collection/generic/TraversableTemplate;Ljava/lang/String;)Ljava/lang/String;;
const #375 = NameAndType	#369:#374;//  mkString:(Lscala/collection/generic/TraversableTemplate;Ljava/lang/String;)Ljava/lang/String;
const #376 = Method	#21.#375;	//  scala/collection/generic/TraversableTemplate$class.mkString:(Lscala/collection/generic/TraversableTemplate;Ljava/lang/String;)Ljava/lang/String;
const #377 = Asciz	(Ljava/lang/String;Ljava/lang/String;Ljava/lang/String;)Ljava/lang/String;;
const #378 = Asciz	(Lscala/collection/generic/TraversableTemplate;Ljava/lang/String;Ljava/lang/String;Ljava/lang/String;)Ljava/lang/String;;
const #379 = NameAndType	#369:#378;//  mkString:(Lscala/collection/generic/TraversableTemplate;Ljava/lang/String;Ljava/lang/String;Ljava/lang/String;)Ljava/lang/String;
const #380 = Method	#21.#379;	//  scala/collection/generic/TraversableTemplate$class.mkString:(Lscala/collection/generic/TraversableTemplate;Ljava/lang/String;Ljava/lang/String;Ljava/lang/String;)Ljava/lang/String;
const #381 = Asciz	start;
const #382 = Asciz	end;
const #383 = Asciz	toSet;
const #384 = Asciz	()Lscala/collection/immutable/Set;;
const #385 = Asciz	(Lscala/collection/generic/TraversableTemplate;)Lscala/collection/immutable/Set;;
const #386 = NameAndType	#383:#385;//  toSet:(Lscala/collection/generic/TraversableTemplate;)Lscala/collection/immutable/Set;
const #387 = Method	#21.#386;	//  scala/collection/generic/TraversableTemplate$class.toSet:(Lscala/collection/generic/TraversableTemplate;)Lscala/collection/immutable/Set;
const #388 = Asciz	toSequence;
const #389 = Asciz	()Lscala/collection/Sequence;;
const #390 = Asciz	(Lscala/collection/generic/TraversableTemplate;)Lscala/collection/Sequence;;
const #391 = NameAndType	#388:#390;//  toSequence:(Lscala/collection/generic/TraversableTemplate;)Lscala/collection/Sequence;
const #392 = Method	#21.#391;	//  scala/collection/generic/TraversableTemplate$class.toSequence:(Lscala/collection/generic/TraversableTemplate;)Lscala/collection/Sequence;
const #393 = Asciz	toArray;
const #394 = Asciz	()Lscala/runtime/BoxedArray;;
const #395 = Asciz	(Lscala/collection/generic/TraversableTemplate;)Lscala/runtime/BoxedArray;;
const #396 = NameAndType	#393:#395;//  toArray:(Lscala/collection/generic/TraversableTemplate;)Lscala/runtime/BoxedArray;
const #397 = Method	#21.#396;	//  scala/collection/generic/TraversableTemplate$class.toArray:(Lscala/collection/generic/TraversableTemplate;)Lscala/runtime/BoxedArray;
const #398 = Asciz	copyToArray;
const #399 = Asciz	(Lscala/runtime/BoxedArray;I)V;
const #400 = Asciz	(Lscala/collection/generic/TraversableTemplate;Lscala/runtime/BoxedArray;I)V;
const #401 = NameAndType	#398:#400;//  copyToArray:(Lscala/collection/generic/TraversableTemplate;Lscala/runtime/BoxedArray;I)V
const #402 = Method	#21.#401;	//  scala/collection/generic/TraversableTemplate$class.copyToArray:(Lscala/collection/generic/TraversableTemplate;Lscala/runtime/BoxedArray;I)V
const #403 = Asciz	xs;
const #404 = Asciz	Lscala/runtime/BoxedArray;;
const #405 = Asciz	(Lscala/runtime/BoxedArray;II)V;
const #406 = Asciz	(Lscala/collection/generic/TraversableTemplate;Lscala/runtime/BoxedArray;II)V;
const #407 = NameAndType	#398:#406;//  copyToArray:(Lscala/collection/generic/TraversableTemplate;Lscala/runtime/BoxedArray;II)V
const #408 = Method	#21.#407;	//  scala/collection/generic/TraversableTemplate$class.copyToArray:(Lscala/collection/generic/TraversableTemplate;Lscala/runtime/BoxedArray;II)V
const #409 = Asciz	len;
const #410 = Asciz	copyToBuffer;
const #411 = Asciz	(Lscala/collection/mutable/Buffer;)V;
const #412 = Asciz	(Lscala/collection/generic/TraversableTemplate;Lscala/collection/mutable/Buffer;)V;
const #413 = NameAndType	#410:#412;//  copyToBuffer:(Lscala/collection/generic/TraversableTemplate;Lscala/collection/mutable/Buffer;)V
const #414 = Method	#21.#413;	//  scala/collection/generic/TraversableTemplate$class.copyToBuffer:(Lscala/collection/generic/TraversableTemplate;Lscala/collection/mutable/Buffer;)V
const #415 = Asciz	dest;
const #416 = Asciz	Lscala/collection/mutable/Buffer;;
const #417 = Asciz	splitAt;
const #418 = Asciz	(I)Lscala/Tuple2;;
const #419 = Asciz	(Lscala/collection/generic/TraversableTemplate;I)Lscala/Tuple2;;
const #420 = NameAndType	#417:#419;//  splitAt:(Lscala/collection/generic/TraversableTemplate;I)Lscala/Tuple2;
const #421 = Method	#21.#420;	//  scala/collection/generic/TraversableTemplate$class.splitAt:(Lscala/collection/generic/TraversableTemplate;I)Lscala/Tuple2;
const #422 = Asciz	n;
const #423 = Asciz	span;
const #424 = Asciz	(Lscala/Function1;)Lscala/Tuple2;;
const #425 = Asciz	(Lscala/collection/generic/TraversableTemplate;Lscala/Function1;)Lscala/Tuple2;;
const #426 = NameAndType	#423:#425;//  span:(Lscala/collection/generic/TraversableTemplate;Lscala/Function1;)Lscala/Tuple2;
const #427 = Method	#21.#426;	//  scala/collection/generic/TraversableTemplate$class.span:(Lscala/collection/generic/TraversableTemplate;Lscala/Function1;)Lscala/Tuple2;
const #428 = Asciz	dropWhile;
const #429 = Asciz	(Lscala/collection/generic/TraversableTemplate;Lscala/Function1;)Lscala/collection/generic/TraversableTemplate;;
const #430 = NameAndType	#428:#429;//  dropWhile:(Lscala/collection/generic/TraversableTemplate;Lscala/Function1;)Lscala/collection/generic/TraversableTemplate;
const #431 = Method	#21.#430;	//  scala/collection/generic/TraversableTemplate$class.dropWhile:(Lscala/collection/generic/TraversableTemplate;Lscala/Function1;)Lscala/collection/generic/TraversableTemplate;
const #432 = Asciz	takeWhile;
const #433 = NameAndType	#432:#429;//  takeWhile:(Lscala/collection/generic/TraversableTemplate;Lscala/Function1;)Lscala/collection/generic/TraversableTemplate;
const #434 = Method	#21.#433;	//  scala/collection/generic/TraversableTemplate$class.takeWhile:(Lscala/collection/generic/TraversableTemplate;Lscala/Function1;)Lscala/collection/generic/TraversableTemplate;
const #435 = Asciz	slice;
const #436 = Asciz	(II)Lscala/collection/generic/TraversableTemplate;;
const #437 = Asciz	(Lscala/collection/generic/TraversableTemplate;II)Lscala/collection/generic/TraversableTemplate;;
const #438 = NameAndType	#435:#437;//  slice:(Lscala/collection/generic/TraversableTemplate;II)Lscala/collection/generic/TraversableTemplate;
const #439 = Method	#21.#438;	//  scala/collection/generic/TraversableTemplate$class.slice:(Lscala/collection/generic/TraversableTemplate;II)Lscala/collection/generic/TraversableTemplate;
const #440 = Asciz	drop;
const #441 = Asciz	(I)Lscala/collection/generic/TraversableTemplate;;
const #442 = Asciz	(Lscala/collection/generic/TraversableTemplate;I)Lscala/collection/generic/TraversableTemplate;;
const #443 = NameAndType	#440:#442;//  drop:(Lscala/collection/generic/TraversableTemplate;I)Lscala/collection/generic/TraversableTemplate;
const #444 = Method	#21.#443;	//  scala/collection/generic/TraversableTemplate$class.drop:(Lscala/collection/generic/TraversableTemplate;I)Lscala/collection/generic/TraversableTemplate;
const #445 = Asciz	take;
const #446 = NameAndType	#445:#442;//  take:(Lscala/collection/generic/TraversableTemplate;I)Lscala/collection/generic/TraversableTemplate;
const #447 = Method	#21.#446;	//  scala/collection/generic/TraversableTemplate$class.take:(Lscala/collection/generic/TraversableTemplate;I)Lscala/collection/generic/TraversableTemplate;
const #448 = Asciz	init;
const #449 = Asciz	(Lscala/collection/generic/TraversableTemplate;)Lscala/collection/generic/TraversableTemplate;;
const #450 = NameAndType	#448:#449;//  init:(Lscala/collection/generic/TraversableTemplate;)Lscala/collection/generic/TraversableTemplate;
const #451 = Method	#21.#450;	//  scala/collection/generic/TraversableTemplate$class.init:(Lscala/collection/generic/TraversableTemplate;)Lscala/collection/generic/TraversableTemplate;
const #452 = Asciz	lastOption;
const #453 = Asciz	()Lscala/Option;;
const #454 = Asciz	(Lscala/collection/generic/TraversableTemplate;)Lscala/Option;;
const #455 = NameAndType	#452:#454;//  lastOption:(Lscala/collection/generic/TraversableTemplate;)Lscala/Option;
const #456 = Method	#21.#455;	//  scala/collection/generic/TraversableTemplate$class.lastOption:(Lscala/collection/generic/TraversableTemplate;)Lscala/Option;
const #457 = Asciz	last;
const #458 = Asciz	(Lscala/collection/generic/TraversableTemplate;)Ljava/lang/Object;;
const #459 = NameAndType	#457:#458;//  last:(Lscala/collection/generic/TraversableTemplate;)Ljava/lang/Object;
const #460 = Method	#21.#459;	//  scala/collection/generic/TraversableTemplate$class.last:(Lscala/collection/generic/TraversableTemplate;)Ljava/lang/Object;
const #461 = Asciz	tail;
const #462 = NameAndType	#461:#449;//  tail:(Lscala/collection/generic/TraversableTemplate;)Lscala/collection/generic/TraversableTemplate;
const #463 = Method	#21.#462;	//  scala/collection/generic/TraversableTemplate$class.tail:(Lscala/collection/generic/TraversableTemplate;)Lscala/collection/generic/TraversableTemplate;
const #464 = Asciz	headOption;
const #465 = NameAndType	#464:#454;//  headOption:(Lscala/collection/generic/TraversableTemplate;)Lscala/Option;
const #466 = Method	#21.#465;	//  scala/collection/generic/TraversableTemplate$class.headOption:(Lscala/collection/generic/TraversableTemplate;)Lscala/Option;
const #467 = Asciz	reduceRightOption;
const #468 = Asciz	(Lscala/Function2;)Lscala/Option;;
const #469 = Asciz	(Lscala/collection/generic/TraversableTemplate;Lscala/Function2;)Lscala/Option;;
const #470 = NameAndType	#467:#469;//  reduceRightOption:(Lscala/collection/generic/TraversableTemplate;Lscala/Function2;)Lscala/Option;
const #471 = Method	#21.#470;	//  scala/collection/generic/TraversableTemplate$class.reduceRightOption:(Lscala/collection/generic/TraversableTemplate;Lscala/Function2;)Lscala/Option;
const #472 = Asciz	op;
const #473 = Asciz	reduceLeftOption;
const #474 = NameAndType	#473:#469;//  reduceLeftOption:(Lscala/collection/generic/TraversableTemplate;Lscala/Function2;)Lscala/Option;
const #475 = Method	#21.#474;	//  scala/collection/generic/TraversableTemplate$class.reduceLeftOption:(Lscala/collection/generic/TraversableTemplate;Lscala/Function2;)Lscala/Option;
const #476 = Asciz	reduceLeft;
const #477 = Asciz	(Lscala/Function2;)Ljava/lang/Object;;
const #478 = Asciz	(Lscala/collection/generic/TraversableTemplate;Lscala/Function2;)Ljava/lang/Object;;
const #479 = NameAndType	#476:#478;//  reduceLeft:(Lscala/collection/generic/TraversableTemplate;Lscala/Function2;)Ljava/lang/Object;
const #480 = Method	#21.#479;	//  scala/collection/generic/TraversableTemplate$class.reduceLeft:(Lscala/collection/generic/TraversableTemplate;Lscala/Function2;)Ljava/lang/Object;
const #481 = Asciz	$colon$bslash;
const #482 = Asciz	(Ljava/lang/Object;Lscala/Function2;)Ljava/lang/Object;;
const #483 = Asciz	(Lscala/collection/generic/TraversableTemplate;Ljava/lang/Object;Lscala/Function2;)Ljava/lang/Object;;
const #484 = NameAndType	#481:#483;//  $colon$bslash:(Lscala/collection/generic/TraversableTemplate;Ljava/lang/Object;Lscala/Function2;)Ljava/lang/Object;
const #485 = Method	#21.#484;	//  scala/collection/generic/TraversableTemplate$class.$colon$bslash:(Lscala/collection/generic/TraversableTemplate;Ljava/lang/Object;Lscala/Function2;)Ljava/lang/Object;
const #486 = Asciz	z;
const #487 = Asciz	$div$colon;
const #488 = NameAndType	#487:#483;//  $div$colon:(Lscala/collection/generic/TraversableTemplate;Ljava/lang/Object;Lscala/Function2;)Ljava/lang/Object;
const #489 = Method	#21.#488;	//  scala/collection/generic/TraversableTemplate$class.$div$colon:(Lscala/collection/generic/TraversableTemplate;Ljava/lang/Object;Lscala/Function2;)Ljava/lang/Object;
const #490 = Asciz	foldLeft;
const #491 = NameAndType	#490:#483;//  foldLeft:(Lscala/collection/generic/TraversableTemplate;Ljava/lang/Object;Lscala/Function2;)Ljava/lang/Object;
const #492 = Method	#21.#491;	//  scala/collection/generic/TraversableTemplate$class.foldLeft:(Lscala/collection/generic/TraversableTemplate;Ljava/lang/Object;Lscala/Function2;)Ljava/lang/Object;
const #493 = Asciz	find;
const #494 = Asciz	(Lscala/Function1;)Lscala/Option;;
const #495 = Asciz	(Lscala/collection/generic/TraversableTemplate;Lscala/Function1;)Lscala/Option;;
const #496 = NameAndType	#493:#495;//  find:(Lscala/collection/generic/TraversableTemplate;Lscala/Function1;)Lscala/Option;
const #497 = Method	#21.#496;	//  scala/collection/generic/TraversableTemplate$class.find:(Lscala/collection/generic/TraversableTemplate;Lscala/Function1;)Lscala/Option;
const #498 = Asciz	count;
const #499 = Asciz	(Lscala/Function1;)I;
const #500 = Asciz	(Lscala/collection/generic/TraversableTemplate;Lscala/Function1;)I;
const #501 = NameAndType	#498:#500;//  count:(Lscala/collection/generic/TraversableTemplate;Lscala/Function1;)I
const #502 = Method	#21.#501;	//  scala/collection/generic/TraversableTemplate$class.count:(Lscala/collection/generic/TraversableTemplate;Lscala/Function1;)I
const #503 = Asciz	exists;
const #504 = Asciz	(Lscala/Function1;)Z;
const #505 = Asciz	(Lscala/collection/generic/TraversableTemplate;Lscala/Function1;)Z;
const #506 = NameAndType	#503:#505;//  exists:(Lscala/collection/generic/TraversableTemplate;Lscala/Function1;)Z
const #507 = Method	#21.#506;	//  scala/collection/generic/TraversableTemplate$class.exists:(Lscala/collection/generic/TraversableTemplate;Lscala/Function1;)Z
const #508 = Asciz	forall;
const #509 = NameAndType	#508:#505;//  forall:(Lscala/collection/generic/TraversableTemplate;Lscala/Function1;)Z
const #510 = Method	#21.#509;	//  scala/collection/generic/TraversableTemplate$class.forall:(Lscala/collection/generic/TraversableTemplate;Lscala/Function1;)Z
const #511 = Asciz	groupBy;
const #512 = Asciz	(Lscala/Function1;)Lscala/collection/Map;;
const #513 = Asciz	(Lscala/collection/generic/TraversableTemplate;Lscala/Function1;)Lscala/collection/Map;;
const #514 = NameAndType	#511:#513;//  groupBy:(Lscala/collection/generic/TraversableTemplate;Lscala/Function1;)Lscala/collection/Map;
const #515 = Method	#21.#514;	//  scala/collection/generic/TraversableTemplate$class.groupBy:(Lscala/collection/generic/TraversableTemplate;Lscala/Function1;)Lscala/collection/Map;
const #516 = Asciz	partition;
const #517 = NameAndType	#516:#425;//  partition:(Lscala/collection/generic/TraversableTemplate;Lscala/Function1;)Lscala/Tuple2;
const #518 = Method	#21.#517;	//  scala/collection/generic/TraversableTemplate$class.partition:(Lscala/collection/generic/TraversableTemplate;Lscala/Function1;)Lscala/Tuple2;
const #519 = Asciz	remove;
const #520 = NameAndType	#519:#429;//  remove:(Lscala/collection/generic/TraversableTemplate;Lscala/Function1;)Lscala/collection/generic/TraversableTemplate;
const #521 = Method	#21.#520;	//  scala/collection/generic/TraversableTemplate$class.remove:(Lscala/collection/generic/TraversableTemplate;Lscala/Function1;)Lscala/collection/generic/TraversableTemplate;
const #522 = Asciz	filterNot;
const #523 = NameAndType	#522:#429;//  filterNot:(Lscala/collection/generic/TraversableTemplate;Lscala/Function1;)Lscala/collection/generic/TraversableTemplate;
const #524 = Method	#21.#523;	//  scala/collection/generic/TraversableTemplate$class.filterNot:(Lscala/collection/generic/TraversableTemplate;Lscala/Function1;)Lscala/collection/generic/TraversableTemplate;
const #525 = Asciz	filterMap;
const #526 = Asciz	(Lscala/PartialFunction;Lscala/collection/generic/BuilderFactory;)Ljava/lang/Object;;
const #527 = Asciz	(Lscala/collection/generic/TraversableTemplate;Lscala/PartialFunction;Lscala/collection/generic/BuilderFactory;)Ljava/lang/Object;;
const #528 = NameAndType	#525:#527;//  filterMap:(Lscala/collection/generic/TraversableTemplate;Lscala/PartialFunction;Lscala/collection/generic/BuilderFactory;)Ljava/lang/Object;
const #529 = Method	#21.#528;	//  scala/collection/generic/TraversableTemplate$class.filterMap:(Lscala/collection/generic/TraversableTemplate;Lscala/PartialFunction;Lscala/collection/generic/BuilderFactory;)Ljava/lang/Object;
const #530 = Asciz	pf;
const #531 = Asciz	Lscala/PartialFunction;;
const #532 = Asciz	bf;
const #533 = Asciz	Lscala/collection/generic/BuilderFactory;;
const #534 = NameAndType	#254:#429;//  filter:(Lscala/collection/generic/TraversableTemplate;Lscala/Function1;)Lscala/collection/generic/TraversableTemplate;
const #535 = Method	#21.#534;	//  scala/collection/generic/TraversableTemplate$class.filter:(Lscala/collection/generic/TraversableTemplate;Lscala/Function1;)Lscala/collection/generic/TraversableTemplate;
const #536 = Asciz	flatMap;
const #537 = Asciz	(Lscala/Function1;Lscala/collection/generic/BuilderFactory;)Ljava/lang/Object;;
const #538 = Asciz	(Lscala/collection/generic/TraversableTemplate;Lscala/Function1;Lscala/collection/generic/BuilderFactory;)Ljava/lang/Object;;
const #539 = NameAndType	#536:#538;//  flatMap:(Lscala/collection/generic/TraversableTemplate;Lscala/Function1;Lscala/collection/generic/BuilderFactory;)Ljava/lang/Object;
const #540 = Method	#21.#539;	//  scala/collection/generic/TraversableTemplate$class.flatMap:(Lscala/collection/generic/TraversableTemplate;Lscala/Function1;Lscala/collection/generic/BuilderFactory;)Ljava/lang/Object;
const #541 = Asciz	map;
const #542 = NameAndType	#541:#538;//  map:(Lscala/collection/generic/TraversableTemplate;Lscala/Function1;Lscala/collection/generic/BuilderFactory;)Ljava/lang/Object;
const #543 = Method	#21.#542;	//  scala/collection/generic/TraversableTemplate$class.map:(Lscala/collection/generic/TraversableTemplate;Lscala/Function1;Lscala/collection/generic/BuilderFactory;)Ljava/lang/Object;
const #544 = Asciz	$plus$plus;
const #545 = Asciz	(Lscala/collection/Iterator;Lscala/collection/generic/BuilderFactory;)Ljava/lang/Object;;
const #546 = Asciz	(Lscala/collection/generic/TraversableTemplate;Lscala/collection/Iterator;Lscala/collection/generic/BuilderFactory;)Ljava/lang/Object;;
const #547 = NameAndType	#544:#546;//  $plus$plus:(Lscala/collection/generic/TraversableTemplate;Lscala/collection/Iterator;Lscala/collection/generic/BuilderFactory;)Ljava/lang/Object;
const #548 = Method	#21.#547;	//  scala/collection/generic/TraversableTemplate$class.$plus$plus:(Lscala/collection/generic/TraversableTemplate;Lscala/collection/Iterator;Lscala/collection/generic/BuilderFactory;)Ljava/lang/Object;
const #549 = Asciz	that;
const #550 = Asciz	(Lscala/collection/Traversable;Lscala/collection/generic/BuilderFactory;)Ljava/lang/Object;;
const #551 = Asciz	(Lscala/collection/generic/TraversableTemplate;Lscala/collection/Traversable;Lscala/collection/generic/BuilderFactory;)Ljava/lang/Object;;
const #552 = NameAndType	#544:#551;//  $plus$plus:(Lscala/collection/generic/TraversableTemplate;Lscala/collection/Traversable;Lscala/collection/generic/BuilderFactory;)Ljava/lang/Object;
const #553 = Method	#21.#552;	//  scala/collection/generic/TraversableTemplate$class.$plus$plus:(Lscala/collection/generic/TraversableTemplate;Lscala/collection/Traversable;Lscala/collection/generic/BuilderFactory;)Ljava/lang/Object;
const #554 = Asciz	hasDefiniteSize;
const #555 = Asciz	(Lscala/collection/generic/TraversableTemplate;)Z;
const #556 = NameAndType	#554:#555;//  hasDefiniteSize:(Lscala/collection/generic/TraversableTemplate;)Z
const #557 = Method	#21.#556;	//  scala/collection/generic/TraversableTemplate$class.hasDefiniteSize:(Lscala/collection/generic/TraversableTemplate;)Z
const #558 = Asciz	nonEmpty;
const #559 = NameAndType	#558:#555;//  nonEmpty:(Lscala/collection/generic/TraversableTemplate;)Z
const #560 = Method	#21.#559;	//  scala/collection/generic/TraversableTemplate$class.nonEmpty:(Lscala/collection/generic/TraversableTemplate;)Z
const #561 = NameAndType	#231:#449;//  thisCollection:(Lscala/collection/generic/TraversableTemplate;)Lscala/collection/generic/TraversableTemplate;
const #562 = Method	#21.#561;	//  scala/collection/generic/TraversableTemplate$class.thisCollection:(Lscala/collection/generic/TraversableTemplate;)Lscala/collection/generic/TraversableTemplate;
const #563 = Asciz	transpose;
const #564 = Asciz	(Lscala/Function1;)Lscala/collection/Traversable;;
const #565 = Asciz	(Lscala/collection/generic/TraversableClass;Lscala/Function1;)Lscala/collection/Traversable;;
const #566 = NameAndType	#563:#565;//  transpose:(Lscala/collection/generic/TraversableClass;Lscala/Function1;)Lscala/collection/Traversable;
const #567 = Method	#27.#566;	//  scala/collection/generic/TraversableClass$class.transpose:(Lscala/collection/generic/TraversableClass;Lscala/Function1;)Lscala/collection/Traversable;
const #568 = Asciz	toTraversable;
const #569 = Asciz	flatten;
const #570 = NameAndType	#569:#565;//  flatten:(Lscala/collection/generic/TraversableClass;Lscala/Function1;)Lscala/collection/Traversable;
const #571 = Method	#27.#570;	//  scala/collection/generic/TraversableClass$class.flatten:(Lscala/collection/generic/TraversableClass;Lscala/Function1;)Lscala/collection/Traversable;
const #572 = Asciz	unzip;
const #573 = Asciz	(Lscala/collection/generic/TraversableClass;Lscala/Function1;)Lscala/Tuple2;;
const #574 = NameAndType	#572:#573;//  unzip:(Lscala/collection/generic/TraversableClass;Lscala/Function1;)Lscala/Tuple2;
const #575 = Method	#27.#574;	//  scala/collection/generic/TraversableClass$class.unzip:(Lscala/collection/generic/TraversableClass;Lscala/Function1;)Lscala/Tuple2;
const #576 = Asciz	toPair;
const #577 = Asciz	genericBuilder;
const #578 = Asciz	()Lscala/collection/generic/Builder;;
const #579 = Asciz	(Lscala/collection/generic/TraversableClass;)Lscala/collection/generic/Builder;;
const #580 = NameAndType	#577:#579;//  genericBuilder:(Lscala/collection/generic/TraversableClass;)Lscala/collection/generic/Builder;
const #581 = Method	#27.#580;	//  scala/collection/generic/TraversableClass$class.genericBuilder:(Lscala/collection/generic/TraversableClass;)Lscala/collection/generic/Builder;
const #582 = Asciz	projection;
const #583 = Asciz	(Lscala/collection/generic/IterableTemplate;)Ljava/lang/Object;;
const #584 = NameAndType	#582:#583;//  projection:(Lscala/collection/generic/IterableTemplate;)Ljava/lang/Object;
const #585 = Method	#42.#584;	//  scala/collection/generic/IterableTemplate$class.projection:(Lscala/collection/generic/IterableTemplate;)Ljava/lang/Object;
const #586 = Asciz	toSeq;
const #587 = Asciz	(Lscala/collection/generic/IterableTemplate;)Lscala/collection/Sequence;;
const #588 = NameAndType	#586:#587;//  toSeq:(Lscala/collection/generic/IterableTemplate;)Lscala/collection/Sequence;
const #589 = Method	#42.#588;	//  scala/collection/generic/IterableTemplate$class.toSeq:(Lscala/collection/generic/IterableTemplate;)Lscala/collection/Sequence;
const #590 = Asciz	firstOption;
const #591 = Asciz	(Lscala/collection/generic/IterableTemplate;)Lscala/Option;;
const #592 = NameAndType	#590:#591;//  firstOption:(Lscala/collection/generic/IterableTemplate;)Lscala/Option;
const #593 = Method	#42.#592;	//  scala/collection/generic/IterableTemplate$class.firstOption:(Lscala/collection/generic/IterableTemplate;)Lscala/Option;
const #594 = Asciz	first;
const #595 = NameAndType	#594:#583;//  first:(Lscala/collection/generic/IterableTemplate;)Ljava/lang/Object;
const #596 = Method	#42.#595;	//  scala/collection/generic/IterableTemplate$class.first:(Lscala/collection/generic/IterableTemplate;)Ljava/lang/Object;
const #597 = Asciz	(Lscala/collection/generic/IterableTemplate;II)Lscala/collection/generic/IterableView;;
const #598 = NameAndType	#221:#597;//  view:(Lscala/collection/generic/IterableTemplate;II)Lscala/collection/generic/IterableView;
const #599 = Method	#42.#598;	//  scala/collection/generic/IterableTemplate$class.view:(Lscala/collection/generic/IterableTemplate;II)Lscala/collection/generic/IterableView;
const #600 = NameAndType	#221:#583;//  view:(Lscala/collection/generic/IterableTemplate;)Ljava/lang/Object;
const #601 = Method	#42.#600;	//  scala/collection/generic/IterableTemplate$class.view:(Lscala/collection/generic/IterableTemplate;)Ljava/lang/Object;
const #602 = Asciz	toStream;
const #603 = Asciz	()Lscala/collection/immutable/Stream;;
const #604 = Asciz	(Lscala/collection/generic/IterableTemplate;)Lscala/collection/immutable/Stream;;
const #605 = NameAndType	#602:#604;//  toStream:(Lscala/collection/generic/IterableTemplate;)Lscala/collection/immutable/Stream;
const #606 = Method	#42.#605;	//  scala/collection/generic/IterableTemplate$class.toStream:(Lscala/collection/generic/IterableTemplate;)Lscala/collection/immutable/Stream;
const #607 = Asciz	sameElements;
const #608 = Asciz	(Lscala/collection/Iterable;)Z;
const #609 = Asciz	(Lscala/collection/generic/IterableTemplate;Lscala/collection/Iterable;)Z;
const #610 = NameAndType	#607:#609;//  sameElements:(Lscala/collection/generic/IterableTemplate;Lscala/collection/Iterable;)Z
const #611 = Method	#42.#610;	//  scala/collection/generic/IterableTemplate$class.sameElements:(Lscala/collection/generic/IterableTemplate;Lscala/collection/Iterable;)Z
const #612 = Asciz	Lscala/collection/Iterable;;
const #613 = Asciz	dropRight;
const #614 = Asciz	(I)Lscala/collection/generic/IterableTemplate;;
const #615 = Asciz	(Lscala/collection/generic/IterableTemplate;I)Lscala/collection/generic/IterableTemplate;;
const #616 = NameAndType	#613:#615;//  dropRight:(Lscala/collection/generic/IterableTemplate;I)Lscala/collection/generic/IterableTemplate;
const #617 = Method	#42.#616;	//  scala/collection/generic/IterableTemplate$class.dropRight:(Lscala/collection/generic/IterableTemplate;I)Lscala/collection/generic/IterableTemplate;
const #618 = Asciz	takeRight;
const #619 = NameAndType	#618:#615;//  takeRight:(Lscala/collection/generic/IterableTemplate;I)Lscala/collection/generic/IterableTemplate;
const #620 = Method	#42.#619;	//  scala/collection/generic/IterableTemplate$class.takeRight:(Lscala/collection/generic/IterableTemplate;I)Lscala/collection/generic/IterableTemplate;
const #621 = Asciz	head;
const #622 = NameAndType	#621:#583;//  head:(Lscala/collection/generic/IterableTemplate;)Ljava/lang/Object;
const #623 = Method	#42.#622;	//  scala/collection/generic/IterableTemplate$class.head:(Lscala/collection/generic/IterableTemplate;)Ljava/lang/Object;
const #624 = Asciz	toIterable;
const #625 = Asciz	(Lscala/collection/generic/IterableTemplate;)Lscala/collection/Iterable;;
const #626 = NameAndType	#624:#625;//  toIterable:(Lscala/collection/generic/IterableTemplate;)Lscala/collection/Iterable;
const #627 = Method	#42.#626;	//  scala/collection/generic/IterableTemplate$class.toIterable:(Lscala/collection/generic/IterableTemplate;)Lscala/collection/Iterable;
const #628 = Asciz	reduceRight;
const #629 = Asciz	(Lscala/collection/generic/IterableTemplate;Lscala/Function2;)Ljava/lang/Object;;
const #630 = NameAndType	#628:#629;//  reduceRight:(Lscala/collection/generic/IterableTemplate;Lscala/Function2;)Ljava/lang/Object;
const #631 = Method	#42.#630;	//  scala/collection/generic/IterableTemplate$class.reduceRight:(Lscala/collection/generic/IterableTemplate;Lscala/Function2;)Ljava/lang/Object;
const #632 = Asciz	foldRight;
const #633 = Asciz	(Lscala/collection/generic/IterableTemplate;Ljava/lang/Object;Lscala/Function2;)Ljava/lang/Object;;
const #634 = NameAndType	#632:#633;//  foldRight:(Lscala/collection/generic/IterableTemplate;Ljava/lang/Object;Lscala/Function2;)Ljava/lang/Object;
const #635 = Method	#42.#634;	//  scala/collection/generic/IterableTemplate$class.foldRight:(Lscala/collection/generic/IterableTemplate;Ljava/lang/Object;Lscala/Function2;)Ljava/lang/Object;
const #636 = Asciz	foreach;
const #637 = Asciz	(Lscala/collection/generic/IterableTemplate;Lscala/Function1;)V;
const #638 = NameAndType	#636:#637;//  foreach:(Lscala/collection/generic/IterableTemplate;Lscala/Function1;)V
const #639 = Method	#42.#638;	//  scala/collection/generic/IterableTemplate$class.foreach:(Lscala/collection/generic/IterableTemplate;Lscala/Function1;)V
const #640 = Asciz	companion;
const #641 = Asciz	()Lscala/collection/generic/Companion;;
const #642 = Asciz	(Lscala/collection/mutable/Iterable;)Lscala/collection/generic/Companion;;
const #643 = NameAndType	#640:#642;//  companion:(Lscala/collection/mutable/Iterable;)Lscala/collection/generic/Companion;
const #644 = Method	#52.#643;	//  scala/collection/mutable/Iterable$class.companion:(Lscala/collection/mutable/Iterable;)Lscala/collection/generic/Companion;
const #645 = Asciz	compose;
const #646 = Asciz	(Lscala/Function1;Lscala/Function1;)Lscala/Function1;;
const #647 = NameAndType	#645:#646;//  compose:(Lscala/Function1;Lscala/Function1;)Lscala/Function1;
const #648 = Method	#57.#647;	//  scala/Function1$class.compose:(Lscala/Function1;Lscala/Function1;)Lscala/Function1;
const #649 = Asciz	(Lscala/PartialFunction;Lscala/Function1;)Lscala/PartialFunction;;
const #650 = NameAndType	#212:#649;//  andThen:(Lscala/PartialFunction;Lscala/Function1;)Lscala/PartialFunction;
const #651 = Method	#62.#650;	//  scala/PartialFunction$class.andThen:(Lscala/PartialFunction;Lscala/Function1;)Lscala/PartialFunction;
const #652 = Asciz	k;
const #653 = Asciz	orElse;
const #654 = Asciz	(Lscala/PartialFunction;)Lscala/PartialFunction;;
const #655 = Asciz	(Lscala/PartialFunction;Lscala/PartialFunction;)Lscala/PartialFunction;;
const #656 = NameAndType	#653:#655;//  orElse:(Lscala/PartialFunction;Lscala/PartialFunction;)Lscala/PartialFunction;
const #657 = Method	#62.#656;	//  scala/PartialFunction$class.orElse:(Lscala/PartialFunction;Lscala/PartialFunction;)Lscala/PartialFunction;
const #658 = Asciz	stringPrefix;
const #659 = Asciz	(Lscala/collection/generic/MapTemplate;)Ljava/lang/String;;
const #660 = NameAndType	#658:#659;//  stringPrefix:(Lscala/collection/generic/MapTemplate;)Ljava/lang/String;
const #661 = Method	#72.#660;	//  scala/collection/generic/MapTemplate$class.stringPrefix:(Lscala/collection/generic/MapTemplate;)Ljava/lang/String;
const #662 = Asciz	equals;
const #663 = Asciz	(Lscala/collection/generic/MapTemplate;Ljava/lang/Object;)Z;
const #664 = NameAndType	#662:#663;//  equals:(Lscala/collection/generic/MapTemplate;Ljava/lang/Object;)Z
const #665 = Method	#72.#664;	//  scala/collection/generic/MapTemplate$class.equals:(Lscala/collection/generic/MapTemplate;Ljava/lang/Object;)Z
const #666 = Asciz	(Lscala/collection/mutable/StringBuilder;Ljava/lang/String;Ljava/lang/String;Ljava/lang/String;)Lscala/collection/mutable/StringBuilder;;
const #667 = Asciz	(Lscala/collection/generic/MapTemplate;Lscala/collection/mutable/StringBuilder;Ljava/lang/String;Ljava/lang/String;Ljava/lang/String;)Lscala/collection/mutable/StringBuilder;;
const #668 = NameAndType	#356:#667;//  addString:(Lscala/collection/generic/MapTemplate;Lscala/collection/mutable/StringBuilder;Ljava/lang/String;Ljava/lang/String;Ljava/lang/String;)Lscala/collection/mutable/StringBuilder;
const #669 = Method	#72.#668;	//  scala/collection/generic/MapTemplate$class.addString:(Lscala/collection/generic/MapTemplate;Lscala/collection/mutable/StringBuilder;Ljava/lang/String;Ljava/lang/String;Ljava/lang/String;)Lscala/collection/mutable/StringBuilder;
const #670 = Asciz	(Lscala/collection/Iterator;)Lscala/collection/Map;;
const #671 = Asciz	(Lscala/collection/generic/MapTemplate;Lscala/collection/Iterator;)Lscala/collection/Map;;
const #672 = NameAndType	#544:#671;//  $plus$plus:(Lscala/collection/generic/MapTemplate;Lscala/collection/Iterator;)Lscala/collection/Map;
const #673 = Method	#72.#672;	//  scala/collection/generic/MapTemplate$class.$plus$plus:(Lscala/collection/generic/MapTemplate;Lscala/collection/Iterator;)Lscala/collection/Map;
const #674 = Asciz	(Lscala/collection/Traversable;)Lscala/collection/Map;;
const #675 = Asciz	(Lscala/collection/generic/MapTemplate;Lscala/collection/Traversable;)Lscala/collection/Map;;
const #676 = NameAndType	#544:#675;//  $plus$plus:(Lscala/collection/generic/MapTemplate;Lscala/collection/Traversable;)Lscala/collection/Map;
const #677 = Method	#72.#676;	//  scala/collection/generic/MapTemplate$class.$plus$plus:(Lscala/collection/generic/MapTemplate;Lscala/collection/Traversable;)Lscala/collection/Map;
const #678 = Asciz	(Lscala/Tuple2;Lscala/Tuple2;Lscala/collection/Sequence;)Lscala/collection/Map;;
const #679 = Asciz	(Lscala/collection/generic/MapTemplate;Lscala/Tuple2;Lscala/Tuple2;Lscala/collection/Sequence;)Lscala/collection/Map;;
const #680 = NameAndType	#205:#679;//  $plus:(Lscala/collection/generic/MapTemplate;Lscala/Tuple2;Lscala/Tuple2;Lscala/collection/Sequence;)Lscala/collection/Map;
const #681 = Method	#72.#680;	//  scala/collection/generic/MapTemplate$class.$plus:(Lscala/collection/generic/MapTemplate;Lscala/Tuple2;Lscala/Tuple2;Lscala/collection/Sequence;)Lscala/collection/Map;
const #682 = Asciz	mapElements;
const #683 = Asciz	(Lscala/Function1;)Ljava/lang/Object;;
const #684 = Asciz	(Lscala/collection/generic/MapTemplate;Lscala/Function1;)Ljava/lang/Object;;
const #685 = NameAndType	#682:#684;//  mapElements:(Lscala/collection/generic/MapTemplate;Lscala/Function1;)Ljava/lang/Object;
const #686 = Method	#72.#685;	//  scala/collection/generic/MapTemplate$class.mapElements:(Lscala/collection/generic/MapTemplate;Lscala/Function1;)Ljava/lang/Object;
const #687 = Asciz	mapValues;
const #688 = NameAndType	#687:#684;//  mapValues:(Lscala/collection/generic/MapTemplate;Lscala/Function1;)Ljava/lang/Object;
const #689 = Method	#72.#688;	//  scala/collection/generic/MapTemplate$class.mapValues:(Lscala/collection/generic/MapTemplate;Lscala/Function1;)Ljava/lang/Object;
const #690 = Asciz	filterKeys;
const #691 = NameAndType	#690:#684;//  filterKeys:(Lscala/collection/generic/MapTemplate;Lscala/Function1;)Ljava/lang/Object;
const #692 = Method	#72.#691;	//  scala/collection/generic/MapTemplate$class.filterKeys:(Lscala/collection/generic/MapTemplate;Lscala/Function1;)Ljava/lang/Object;
const #693 = Asciz	default;
const #694 = Asciz	(Lscala/collection/generic/MapTemplate;Ljava/lang/Object;)Ljava/lang/Object;;
const #695 = NameAndType	#693:#694;//  default:(Lscala/collection/generic/MapTemplate;Ljava/lang/Object;)Ljava/lang/Object;
const #696 = Method	#72.#695;	//  scala/collection/generic/MapTemplate$class.default:(Lscala/collection/generic/MapTemplate;Ljava/lang/Object;)Ljava/lang/Object;
const #697 = Asciz	getOrElse;
const #698 = Asciz	(Ljava/lang/Object;Lscala/Function0;)Ljava/lang/Object;;
const #699 = Asciz	(Lscala/collection/generic/MapTemplate;Ljava/lang/Object;Lscala/Function0;)Ljava/lang/Object;;
const #700 = NameAndType	#697:#699;//  getOrElse:(Lscala/collection/generic/MapTemplate;Ljava/lang/Object;Lscala/Function0;)Ljava/lang/Object;
const #701 = Method	#72.#700;	//  scala/collection/generic/MapTemplate$class.getOrElse:(Lscala/collection/generic/MapTemplate;Ljava/lang/Object;Lscala/Function0;)Ljava/lang/Object;
const #702 = Asciz	Lscala/Function0;;
const #703 = Asciz	scala$collection$generic$Cloneable$$super$clone;
const #704 = NameAndType	#177:#178;//  clone:()Ljava/lang/Object;
const #705 = Method	#16.#704;	//  java/lang/Object.clone:()Ljava/lang/Object;
const #706 = Asciz	(Lscala/collection/generic/MutableMapTemplateBase;Lscala/Tuple2;)Lscala/collection/mutable/Map;;
const #707 = NameAndType	#205:#706;//  $plus:(Lscala/collection/generic/MutableMapTemplateBase;Lscala/Tuple2;)Lscala/collection/mutable/Map;
const #708 = Method	#87.#707;	//  scala/collection/generic/MutableMapTemplateBase$class.$plus:(Lscala/collection/generic/MutableMapTemplateBase;Lscala/Tuple2;)Lscala/collection/mutable/Map;
const #709 = Asciz	$plus$plus$eq;
const #710 = Asciz	(Lscala/collection/Traversable;)Lscala/collection/generic/Growable;;
const #711 = Asciz	(Lscala/collection/generic/Growable;Lscala/collection/Traversable;)Lscala/collection/generic/Growable;;
const #712 = NameAndType	#709:#711;//  $plus$plus$eq:(Lscala/collection/generic/Growable;Lscala/collection/Traversable;)Lscala/collection/generic/Growable;
const #713 = Method	#92.#712;	//  scala/collection/generic/Growable$class.$plus$plus$eq:(Lscala/collection/generic/Growable;Lscala/collection/Traversable;)Lscala/collection/generic/Growable;
const #714 = Asciz	(Lscala/collection/Iterator;)Lscala/collection/generic/Growable;;
const #715 = Asciz	(Lscala/collection/generic/Growable;Lscala/collection/Iterator;)Lscala/collection/generic/Growable;;
const #716 = NameAndType	#709:#715;//  $plus$plus$eq:(Lscala/collection/generic/Growable;Lscala/collection/Iterator;)Lscala/collection/generic/Growable;
const #717 = Method	#92.#716;	//  scala/collection/generic/Growable$class.$plus$plus$eq:(Lscala/collection/generic/Growable;Lscala/collection/Iterator;)Lscala/collection/generic/Growable;
const #718 = Asciz	(Ljava/lang/Object;Ljava/lang/Object;Lscala/collection/Sequence;)Lscala/collection/generic/Growable;;
const #719 = Asciz	(Lscala/collection/generic/Growable;Ljava/lang/Object;Ljava/lang/Object;Lscala/collection/Sequence;)Lscala/collection/generic/Growable;;
const #720 = NameAndType	#134:#719;//  $plus$eq:(Lscala/collection/generic/Growable;Ljava/lang/Object;Ljava/lang/Object;Lscala/collection/Sequence;)Lscala/collection/generic/Growable;
const #721 = Method	#92.#720;	//  scala/collection/generic/Growable$class.$plus$eq:(Lscala/collection/generic/Growable;Ljava/lang/Object;Ljava/lang/Object;Lscala/collection/Sequence;)Lscala/collection/generic/Growable;
const #722 = Asciz	mapResult;
const #723 = Asciz	(Lscala/Function1;)Lscala/collection/generic/Builder;;
const #724 = Asciz	(Lscala/collection/generic/Builder;Lscala/Function1;)Lscala/collection/generic/Builder;;
const #725 = NameAndType	#722:#724;//  mapResult:(Lscala/collection/generic/Builder;Lscala/Function1;)Lscala/collection/generic/Builder;
const #726 = Method	#97.#725;	//  scala/collection/generic/Builder$class.mapResult:(Lscala/collection/generic/Builder;Lscala/Function1;)Lscala/collection/generic/Builder;
const #727 = Asciz	sizeHint;
const #728 = Asciz	(I)V;
const #729 = Asciz	(Lscala/collection/generic/Builder;I)V;
const #730 = NameAndType	#727:#729;//  sizeHint:(Lscala/collection/generic/Builder;I)V
const #731 = Method	#97.#730;	//  scala/collection/generic/Builder$class.sizeHint:(Lscala/collection/generic/Builder;I)V
const #732 = Asciz	$minus$minus$eq;
const #733 = Asciz	(Lscala/collection/Traversable;)Lscala/collection/generic/Shrinkable;;
const #734 = Asciz	(Lscala/collection/generic/Shrinkable;Lscala/collection/Traversable;)Lscala/collection/generic/Shrinkable;;
const #735 = NameAndType	#732:#734;//  $minus$minus$eq:(Lscala/collection/generic/Shrinkable;Lscala/collection/Traversable;)Lscala/collection/generic/Shrinkable;
const #736 = Method	#102.#735;	//  scala/collection/generic/Shrinkable$class.$minus$minus$eq:(Lscala/collection/generic/Shrinkable;Lscala/collection/Traversable;)Lscala/collection/generic/Shrinkable;
const #737 = Asciz	(Lscala/collection/Iterator;)Lscala/collection/generic/Shrinkable;;
const #738 = Asciz	(Lscala/collection/generic/Shrinkable;Lscala/collection/Iterator;)Lscala/collection/generic/Shrinkable;;
const #739 = NameAndType	#732:#738;//  $minus$minus$eq:(Lscala/collection/generic/Shrinkable;Lscala/collection/Iterator;)Lscala/collection/generic/Shrinkable;
const #740 = Method	#102.#739;	//  scala/collection/generic/Shrinkable$class.$minus$minus$eq:(Lscala/collection/generic/Shrinkable;Lscala/collection/Iterator;)Lscala/collection/generic/Shrinkable;
const #741 = Asciz	(Ljava/lang/Object;Ljava/lang/Object;Lscala/collection/Sequence;)Lscala/collection/generic/Shrinkable;;
const #742 = Asciz	(Lscala/collection/generic/Shrinkable;Ljava/lang/Object;Ljava/lang/Object;Lscala/collection/Sequence;)Lscala/collection/generic/Shrinkable;;
const #743 = NameAndType	#125:#742;//  $minus$eq:(Lscala/collection/generic/Shrinkable;Ljava/lang/Object;Ljava/lang/Object;Lscala/collection/Sequence;)Lscala/collection/generic/Shrinkable;
const #744 = Method	#102.#743;	//  scala/collection/generic/Shrinkable$class.$minus$eq:(Lscala/collection/generic/Shrinkable;Ljava/lang/Object;Ljava/lang/Object;Lscala/collection/Sequence;)Lscala/collection/generic/Shrinkable;
const #745 = Asciz	(Lscala/collection/generic/MutableMapTemplate;Lscala/collection/Iterator;)Lscala/collection/generic/MutableMapTemplate;;
const #746 = NameAndType	#193:#745;//  $minus$minus:(Lscala/collection/generic/MutableMapTemplate;Lscala/collection/Iterator;)Lscala/collection/generic/MutableMapTemplate;
const #747 = Method	#107.#746;	//  scala/collection/generic/MutableMapTemplate$class.$minus$minus:(Lscala/collection/generic/MutableMapTemplate;Lscala/collection/Iterator;)Lscala/collection/generic/MutableMapTemplate;
const #748 = Asciz	(Lscala/collection/generic/MutableMapTemplate;Lscala/collection/Traversable;)Lscala/collection/generic/MutableMapTemplate;;
const #749 = NameAndType	#193:#748;//  $minus$minus:(Lscala/collection/generic/MutableMapTemplate;Lscala/collection/Traversable;)Lscala/collection/generic/MutableMapTemplate;
const #750 = Method	#107.#749;	//  scala/collection/generic/MutableMapTemplate$class.$minus$minus:(Lscala/collection/generic/MutableMapTemplate;Lscala/collection/Traversable;)Lscala/collection/generic/MutableMapTemplate;
const #751 = Asciz	(Lscala/collection/generic/MutableMapTemplate;Ljava/lang/Object;Ljava/lang/Object;Lscala/collection/Sequence;)Lscala/collection/generic/MutableMapTemplate;;
const #752 = NameAndType	#172:#751;//  $minus:(Lscala/collection/generic/MutableMapTemplate;Ljava/lang/Object;Ljava/lang/Object;Lscala/collection/Sequence;)Lscala/collection/generic/MutableMapTemplate;
const #753 = Method	#107.#752;	//  scala/collection/generic/MutableMapTemplate$class.$minus:(Lscala/collection/generic/MutableMapTemplate;Ljava/lang/Object;Ljava/lang/Object;Lscala/collection/Sequence;)Lscala/collection/generic/MutableMapTemplate;
const #754 = Asciz	(Lscala/collection/generic/MutableMapTemplate;)Lscala/collection/generic/MutableMapTemplate;;
const #755 = NameAndType	#182:#754;//  result:(Lscala/collection/generic/MutableMapTemplate;)Lscala/collection/generic/MutableMapTemplate;
const #756 = Method	#107.#755;	//  scala/collection/generic/MutableMapTemplate$class.result:(Lscala/collection/generic/MutableMapTemplate;)Lscala/collection/generic/MutableMapTemplate;
const #757 = NameAndType	#177:#754;//  clone:(Lscala/collection/generic/MutableMapTemplate;)Lscala/collection/generic/MutableMapTemplate;
const #758 = Method	#107.#757;	//  scala/collection/generic/MutableMapTemplate$class.clone:(Lscala/collection/generic/MutableMapTemplate;)Lscala/collection/generic/MutableMapTemplate;
const #759 = Asciz	getOrElseUpdate;
const #760 = Asciz	(Lscala/collection/generic/MutableMapTemplate;Ljava/lang/Object;Lscala/Function0;)Ljava/lang/Object;;
const #761 = NameAndType	#759:#760;//  getOrElseUpdate:(Lscala/collection/generic/MutableMapTemplate;Ljava/lang/Object;Lscala/Function0;)Ljava/lang/Object;
const #762 = Method	#107.#761;	//  scala/collection/generic/MutableMapTemplate$class.getOrElseUpdate:(Lscala/collection/generic/MutableMapTemplate;Ljava/lang/Object;Lscala/Function0;)Ljava/lang/Object;
const #763 = Asciz	removeKey;
const #764 = Asciz	(Lscala/collection/generic/MutableMapTemplate;Ljava/lang/Object;)Lscala/Option;;
const #765 = NameAndType	#763:#764;//  removeKey:(Lscala/collection/generic/MutableMapTemplate;Ljava/lang/Object;)Lscala/Option;
const #766 = Method	#107.#765;	//  scala/collection/generic/MutableMapTemplate$class.removeKey:(Lscala/collection/generic/MutableMapTemplate;Ljava/lang/Object;)Lscala/Option;
const #767 = Asciz	(Lscala/collection/generic/MutableMapTemplate;Ljava/lang/Object;)Lscala/collection/generic/MutableMapTemplate;;
const #768 = NameAndType	#172:#767;//  $minus:(Lscala/collection/generic/MutableMapTemplate;Ljava/lang/Object;)Lscala/collection/generic/MutableMapTemplate;
const #769 = Method	#107.#768;	//  scala/collection/generic/MutableMapTemplate$class.$minus:(Lscala/collection/generic/MutableMapTemplate;Ljava/lang/Object;)Lscala/collection/generic/MutableMapTemplate;
const #770 = NameAndType	#519:#764;//  remove:(Lscala/collection/generic/MutableMapTemplate;Ljava/lang/Object;)Lscala/Option;
const #771 = Method	#107.#770;	//  scala/collection/generic/MutableMapTemplate$class.remove:(Lscala/collection/generic/MutableMapTemplate;Ljava/lang/Object;)Lscala/Option;
const #772 = NameAndType	#544:#745;//  $plus$plus:(Lscala/collection/generic/MutableMapTemplate;Lscala/collection/Iterator;)Lscala/collection/generic/MutableMapTemplate;
const #773 = Method	#107.#772;	//  scala/collection/generic/MutableMapTemplate$class.$plus$plus:(Lscala/collection/generic/MutableMapTemplate;Lscala/collection/Iterator;)Lscala/collection/generic/MutableMapTemplate;
const #774 = NameAndType	#544:#748;//  $plus$plus:(Lscala/collection/generic/MutableMapTemplate;Lscala/collection/Traversable;)Lscala/collection/generic/MutableMapTemplate;
const #775 = Method	#107.#774;	//  scala/collection/generic/MutableMapTemplate$class.$plus$plus:(Lscala/collection/generic/MutableMapTemplate;Lscala/collection/Traversable;)Lscala/collection/generic/MutableMapTemplate;
const #776 = Asciz	(Lscala/Tuple2;Lscala/Tuple2;Lscala/collection/Sequence;)Lscala/collection/generic/MutableMapTemplate;;
const #777 = Asciz	(Lscala/collection/generic/MutableMapTemplate;Lscala/Tuple2;Lscala/Tuple2;Lscala/collection/Sequence;)Lscala/collection/generic/MutableMapTemplate;;
const #778 = NameAndType	#205:#777;//  $plus:(Lscala/collection/generic/MutableMapTemplate;Lscala/Tuple2;Lscala/Tuple2;Lscala/collection/Sequence;)Lscala/collection/generic/MutableMapTemplate;
const #779 = Method	#107.#778;	//  scala/collection/generic/MutableMapTemplate$class.$plus:(Lscala/collection/generic/MutableMapTemplate;Lscala/Tuple2;Lscala/Tuple2;Lscala/collection/Sequence;)Lscala/collection/generic/MutableMapTemplate;
const #780 = Asciz	(Lscala/collection/generic/MutableMapTemplate;Lscala/Tuple2;)Lscala/collection/generic/MutableMapTemplate;;
const #781 = NameAndType	#205:#780;//  $plus:(Lscala/collection/generic/MutableMapTemplate;Lscala/Tuple2;)Lscala/collection/generic/MutableMapTemplate;
[...]
   7:	areturn
  LineNumberTable: 
   line 27: 0

  LocalVariableTable: 
   Start  Length  Slot  Name   Signature
   0      8      0    this       Lscala/collection/mutable/ImmutableMapAdaptor;
   0      8      1    elem1       Lscala/Tuple2;
   0      8      2    elem2       Lscala/Tuple2;
   0      8      3    elems       Lscala/collection/Sequence;


public java.lang.Object mapElements(scala.Function1);
  Code:
   Stack=2, Locals=2, Args_size=2
   0:	aload_0
   1:	aload_1
   2:	invokestatic	#686; //Method scala/collection/generic/MapTemplate$class.mapElements:(Lscala/collection/generic/MapTemplate;Lscala/Function1;)Ljava/lang/Object;
   5:	areturn
  LineNumberTable: 
   line 27: 0

  LocalVariableTable: 
   Start  Length  Slot  Name   Signature
   0      6      0    this       Lscala/collection/mutable/ImmutableMapAdaptor;
   0      6      1    f       Lscala/Function1;


public java.lang.Object mapValues(scala.Function1);
  Code:
   Stack=2, Locals=2, Args_size=2
   0:	aload_0
   1:	aload_1
   2:	invokestatic	#689; //Method scala/collection/generic/MapTemplate$class.mapValues:(Lscala/collection/generic/MapTemplate;Lscala/Function1;)Ljava/lang/Object;
   5:	areturn
  LineNumberTable: 
   line 27: 0

  LocalVariableTable: 
   Start  Length  Slot  Name   Signature
   0      6      0    this       Lscala/collection/mutable/ImmutableMapAdaptor;
   0      6      1    f       Lscala/Function1;


public java.lang.Object filterKeys(scala.Function1);
  Code:
   Stack=2, Locals=2, Args_size=2
   0:	aload_0
   1:	aload_1
   2:	invokestatic	#692; //Method scala/collection/generic/MapTemplate$class.filterKeys:(Lscala/collection/generic/MapTemplate;Lscala/Function1;)Ljava/lang/Object;
   5:	areturn
  LineNumberTable: 
   line 27: 0

  LocalVariableTable: 
   Start  Length  Slot  Name   Signature
   0      6      0    this       Lscala/collection/mutable/ImmutableMapAdaptor;
   0      6      1    p       Lscala/Function1;


public java.lang.Object default(java.lang.Object);
  Code:
   Stack=2, Locals=2, Args_size=2
   0:	aload_0
   1:	aload_1
   2:	invokestatic	#696; //Method scala/collection/generic/MapTemplate$class.default:(Lscala/collection/generic/MapTemplate;Ljava/lang/Object;)Ljava/lang/Object;
   5:	areturn
  LineNumberTable: 
   line 27: 0

  LocalVariableTable: 
   Start  Length  Slot  Name   Signature
   0      6      0    this       Lscala/collection/mutable/ImmutableMapAdaptor;
   0      6      1    key       Ljava/lang/Object;


public java.lang.Object getOrElse(java.lang.Object, scala.Function0);
  Code:
   Stack=3, Locals=3, Args_size=3
   0:	aload_0
   1:	aload_1
   2:	aload_2
   3:	invokestatic	#701; //Method scala/collection/generic/MapTemplate$class.getOrElse:(Lscala/collection/generic/MapTemplate;Ljava/lang/Object;Lscala/Function0;)Ljava/lang/Object;
   6:	areturn
  LineNumberTable: 
   line 27: 0

  LocalVariableTable: 
   Start  Length  Slot  Name   Signature
   0      7      0    this       Lscala/collection/mutable/ImmutableMapAdaptor;
   0      7      1    key       Ljava/lang/Object;
   0      7      2    default       Lscala/Function0;


public final java.lang.Object scala$collection$generic$Cloneable$$super$clone();
  Code:
   Stack=1, Locals=1, Args_size=1
   0:	aload_0
   1:	invokespecial	#705; //Method java/lang/Object.clone:()Ljava/lang/Object;
   4:	areturn
  LineNumberTable: 
   line 27: 0


public scala.collection.mutable.Map $plus(scala.Tuple2);
  Code:
   Stack=2, Locals=2, Args_size=2
   0:	aload_0
   1:	aload_1
   2:	invokestatic	#708; //Method scala/collection/generic/MutableMapTemplateBase$class.$plus:(Lscala/collection/generic/MutableMapTemplateBase;Lscala/Tuple2;)Lscala/collection/mutable/Map;
   5:	areturn
  LineNumberTable: 
   line 27: 0

  LocalVariableTable: 
   Start  Length  Slot  Name   Signature
   0      6      0    this       Lscala/collection/mutable/ImmutableMapAdaptor;
   0      6      1    kv       Lscala/Tuple2;


public scala.collection.generic.Growable $plus$plus$eq(scala.collection.Traversable);
  Code:
   Stack=2, Locals=2, Args_size=2
   0:	aload_0
   1:	aload_1
   2:	invokestatic	#713; //Method scala/collection/generic/Growable$class.$plus$plus$eq:(Lscala/collection/generic/Growable;Lscala/collection/Traversable;)Lscala/collection/generic/Growable;
   5:	areturn
  LineNumberTable: 
   line 27: 0

  LocalVariableTable: 
   Start  Length  Slot  Name   Signature
   0      6      0    this       Lscala/collection/mutable/ImmutableMapAdaptor;
   0      6      1    iter       Lscala/collection/Traversable;


public scala.collection.generic.Growable $plus$plus$eq(scala.collection.Iterator);
  Code:
   Stack=2, Locals=2, Args_size=2
   0:	aload_0
   1:	aload_1
   2:	invokestatic	#717; //Method scala/collection/generic/Growable$class.$plus$plus$eq:(Lscala/collection/generic/Growable;Lscala/collection/Iterator;)Lscala/collection/generic/Growable;
   5:	areturn
  LineNumberTable: 
   line 27: 0

  LocalVariableTable: 
   Start  Length  Slot  Name   Signature
   0      6      0    this       Lscala/collection/mutable/ImmutableMapAdaptor;
   0      6      1    iter       Lscala/collection/Iterator;


public scala.collection.generic.Growable $plus$eq(java.lang.Object, java.lang.Object, scala.collection.Sequence);
  Code:
   Stack=4, Locals=4, Args_size=4
   0:	aload_0
   1:	aload_1
   2:	aload_2
   3:	aload_3
   4:	invokestatic	#721; //Method scala/collection/generic/Growable$class.$plus$eq:(Lscala/collection/generic/Growable;Ljava/lang/Object;Ljava/lang/Object;Lscala/collection/Sequence;)Lscala/collection/generic/Growable;
   7:	areturn
  LineNumberTable: 
   line 27: 0

  LocalVariableTable: 
   Start  Length  Slot  Name   Signature
   0      8      0    this       Lscala/collection/mutable/ImmutableMapAdaptor;
   0      8      1    elem1       Ljava/lang/Object;
   0      8      2    elem2       Ljava/lang/Object;
   0      8      3    elems       Lscala/collection/Sequence;


public scala.collection.generic.Builder mapResult(scala.Function1);
  Code:
   Stack=2, Locals=2, Args_size=2
   0:	aload_0
   1:	aload_1
   2:	invokestatic	#726; //Method scala/collection/generic/Builder$class.mapResult:(Lscala/collection/generic/Builder;Lscala/Function1;)Lscala/collection/generic/Builder;
   5:	areturn
  LineNumberTable: 
   line 27: 0

  LocalVariableTable: 
   Start  Length  Slot  Name   Signature
   0      6      0    this       Lscala/collection/mutable/ImmutableMapAdaptor;
   0      6      1    f       Lscala/Function1;


public void sizeHint(int);
  Code:
   Stack=2, Locals=2, Args_size=2
   0:	aload_0
   1:	iload_1
   2:	invokestatic	#731; //Method scala/collection/generic/Builder$class.sizeHint:(Lscala/collection/generic/Builder;I)V
   5:	return
  LineNumberTable: 
   line 27: 0

  LocalVariableTable: 
   Start  Length  Slot  Name   Signature
   0      6      0    this       Lscala/collection/mutable/ImmutableMapAdaptor;
   0      6      1    size       I


public scala.collection.generic.Shrinkable $minus$minus$eq(scala.collection.Traversable);
  Code:
   Stack=2, Locals=2, Args_size=2
   0:	aload_0
   1:	aload_1
   2:	invokestatic	#736; //Method scala/collection/generic/Shrinkable$class.$minus$minus$eq:(Lscala/collection/generic/Shrinkable;Lscala/collection/Traversable;)Lscala/collection/generic/Shrinkable;
   5:	areturn
  LineNumberTable: 
   line 27: 0

  LocalVariableTable: 
   Start  Length  Slot  Name   Signature
   0      6      0    this       Lscala/collection/mutable/ImmutableMapAdaptor;
   0      6      1    iter       Lscala/collection/Traversable;


public scala.collection.generic.Shrinkable $minus$minus$eq(scala.collection.Iterator);
  Code:
   Stack=2, Locals=2, Args_size=2
   0:	aload_0
   1:	aload_1
   2:	invokestatic	#740; //Method scala/collection/generic/Shrinkable$class.$minus$minus$eq:(Lscala/collection/generic/Shrinkable;Lscala/collection/Iterator;)Lscala/collection/generic/Shrinkable;
   5:	areturn
  LineNumberTable: 
   line 27: 0

  LocalVariableTable: 
   Start  Length  Slot  Name   Signature
   0      6      0    this       Lscala/collection/mutable/ImmutableMapAdaptor;
   0      6      1    iter       Lscala/collection/Iterator;


public scala.collection.generic.Shrinkable $minus$eq(java.lang.Object, java.lang.Object, scala.collection.Sequence);
  Code:
   Stack=4, Locals=4, Args_size=4
   0:	aload_0
   1:	aload_1
   2:	aload_2
   3:	aload_3
   4:	invokestatic	#744; //Method scala/collection/generic/Shrinkable$class.$minus$eq:(Lscala/collection/generic/Shrinkable;Ljava/lang/Object;Ljava/lang/Object;Lscala/collection/Sequence;)Lscala/collection/generic/Shrinkable;
   7:	areturn
  LineNumberTable: 
   line 27: 0

  LocalVariableTable: 
   Start  Length  Slot  Name   Signature
   0      8      0    this       Lscala/collection/mutable/ImmutableMapAdaptor;
   0      8      1    elem1       Ljava/lang/Object;
   0      8      2    elem2       Ljava/lang/Object;
   0      8      3    elems       Lscala/collection/Sequence;


public scala.collection.generic.MutableMapTemplate $minus$minus(scala.collection.Iterator);
  Code:
   Stack=2, Locals=2, Args_size=2
   0:	aload_0
   1:	aload_1
   2:	invokestatic	#747; //Method scala/collection/generic/MutableMapTemplate$class.$minus$minus:(Lscala/collection/generic/MutableMapTemplate;Lscala/collection/Iterator;)Lscala/collection/generic/MutableMapTemplate;
   5:	areturn
  LineNumberTable: 
   line 27: 0

  LocalVariableTable: 
   Start  Length  Slot  Name   Signature
   0      6      0    this       Lscala/collection/mutable/ImmutableMapAdaptor;
   0      6      1    iter       Lscala/collection/Iterator;


public scala.collection.generic.MutableMapTemplate $minus$minus(scala.collection.Traversable);
  Code:
   Stack=2, Locals=2, Args_size=2
   0:	aload_0
   1:	aload_1
   2:	invokestatic	#750; //Method scala/collection/generic/MutableMapTemplate$class.$minus$minus:(Lscala/collection/generic/MutableMapTemplate;Lscala/collection/Traversable;)Lscala/collection/generic/MutableMapTemplate;
   5:	areturn
  LineNumberTable: 
   line 27: 0

  LocalVariableTable: 
   Start  Length  Slot  Name   Signature
   0      6      0    this       Lscala/collection/mutable/ImmutableMapAdaptor;
   0      6      1    iter       Lscala/collection/Traversable;


public scala.collection.generic.MutableMapTemplate $minus(java.lang.Object, java.lang.Object, scala.collection.Sequence);
  Code:
   Stack=4, Locals=4, Args_size=4
   0:	aload_0
   1:	aload_1
   2:	aload_2
   3:	aload_3
   4:	invokestatic	#753; //Method scala/collection/generic/MutableMapTemplate$class.$minus:(Lscala/collection/generic/MutableMapTemplate;Ljava/lang/Object;Ljava/lang/Object;Lscala/collection/Sequence;)Lscala/collection/generic/MutableMapTemplate;
   7:	areturn
  LineNumberTable: 
   line 27: 0

  LocalVariableTable: 
   Start  Length  Slot  Name   Signature
   0      8      0    this       Lscala/collection/mutable/ImmutableMapAdaptor;
   0      8      1    elem1       Ljava/lang/Object;
   0      8      2    elem2       Ljava/lang/Object;
   0      8      3    elems       Lscala/collection/Sequence;


public scala.collection.generic.MutableMapTemplate result();
  Code:
   Stack=1, Locals=1, Args_size=1
   0:	aload_0
   1:	invokestatic	#756; //Method scala/collection/generic/MutableMapTemplate$class.result:(Lscala/collection/generic/MutableMapTemplate;)Lscala/collection/generic/MutableMapTemplate;
   4:	areturn
  LineNumberTable: 
   line 27: 0


public scala.collection.generic.MutableMapTemplate clone();
  Code:
   Stack=1, Locals=1, Args_size=1
   0:	aload_0
   1:	invokestatic	#758; //Method scala/collection/generic/MutableMapTemplate$class.clone:(Lscala/collection/generic/MutableMapTemplate;)Lscala/collection/generic/MutableMapTemplate;
   4:	areturn
  LineNumberTable: 
   line 27: 0


public java.lang.Object getOrElseUpdate(java.lang.Object, scala.Function0);
  Code:
   Stack=3, Locals=3, Args_size=3
   0:	aload_0
   1:	aload_1
   2:	aload_2
   3:	invokestatic	#762; //Method scala/collection/generic/MutableMapTemplate$class.getOrElseUpdate:(Lscala/collection/generic/MutableMapTemplate;Ljava/lang/Object;Lscala/Function0;)Ljava/lang/Object;
   6:	areturn
  LineNumberTable: 
   line 27: 0

  LocalVariableTable: 
   Start  Length  Slot  Name   Signature
   0      7      0    this       Lscala/collection/mutable/ImmutableMapAdaptor;
   0      7      1    key       Ljava/lang/Object;
   0      7      2    default       Lscala/Function0;


public scala.Option removeKey(java.lang.Object);
  Code:
   Stack=2, Locals=2, Args_size=2
   0:	aload_0
   1:	aload_1
   2:	invokestatic	#766; //Method scala/collection/generic/MutableMapTemplate$class.removeKey:(Lscala/collection/generic/MutableMapTemplate;Ljava/lang/Object;)Lscala/Option;
   5:	areturn
  LineNumberTable: 
   line 27: 0

  LocalVariableTable: 
   Start  Length  Slot  Name   Signature
   0      6      0    this       Lscala/collection/mutable/ImmutableMapAdaptor;
   0      6      1    key       Ljava/lang/Object;


public scala.collection.generic.MutableMapTemplate $minus(java.lang.Object);
  Code:
   Stack=2, Locals=2, Args_size=2
   0:	aload_0
   1:	aload_1
   2:	invokestatic	#769; //Method scala/collection/generic/MutableMapTemplate$class.$minus:(Lscala/collection/generic/MutableMapTemplate;Ljava/lang/Object;)Lscala/collection/generic/MutableMapTemplate;
   5:	areturn
  LineNumberTable: 
   line 27: 0

  LocalVariableTable: 
   Start  Length  Slot  Name   Signature
   0      6      0    this       Lscala/collection/mutable/ImmutableMapAdaptor;
   0      6      1    key       Ljava/lang/Object;


public scala.Option remove(java.lang.Object);
  Code:
   Stack=2, Locals=2, Args_size=2
   0:	aload_0
   1:	aload_1
   2:	invokestatic	#771; //Method scala/collection/generic/MutableMapTemplate$class.remove:(Lscala/collection/generic/MutableMapTemplate;Ljava/lang/Object;)Lscala/Option;
   5:	areturn
  LineNumberTable: 
   line 27: 0

  LocalVariableTable: 
   Start  Length  Slot  Name   Signature
   0      6      0    this       Lscala/collection/mutable/ImmutableMapAdaptor;
   0      6      1    key       Ljava/lang/Object;


public scala.collection.generic.MutableMapTemplate $plus$plus(scala.collection.Iterator);
  Code:
   Stack=2, Locals=2, Args_size=2
   0:	aload_0
   1:	aload_1
   2:	invokestatic	#773; //Method scala/collection/generic/MutableMapTemplate$class.$plus$plus:(Lscala/collection/generic/MutableMapTemplate;Lscala/collection/Iterator;)Lscala/collection/generic/MutableMapTemplate;
   5:	areturn
  LineNumberTable: 
   line 27: 0

  LocalVariableTable: 
   Start  Length  Slot  Name   Signature
   0      6      0    this       Lscala/collection/mutable/ImmutableMapAdaptor;
   0      6      1    iter       Lscala/collection/Iterator;


public scala.collection.generic.MutableMapTemplate $plus$plus(scala.collection.Traversable);
  Code:
   Stack=2, Locals=2, Args_size=2
   0:	aload_0
   1:	aload_1
   2:	invokestatic	#775; //Method scala/collection/generic/MutableMapTemplate$class.$plus$plus:(Lscala/collection/generic/MutableMapTemplate;Lscala/collection/Traversable;)Lscala/collection/generic/MutableMapTemplate;
   5:	areturn
  LineNumberTable: 
   line 27: 0

  LocalVariableTable: 
   Start  Length  Slot  Name   Signature
   0      6      0    this       Lscala/collection/mutable/ImmutableMapAdaptor;
   0      6      1    iter       Lscala/collection/Traversable;


public scala.collection.generic.MutableMapTemplate $plus(scala.Tuple2, scala.Tuple2, scala.collection.Sequence);
  Code:
   Stack=4, Locals=4, Args_size=4
   0:	aload_0
   1:	aload_1
   2:	aload_2
   3:	aload_3
   4:	invokestatic	#779; //Method scala/collection/generic/MutableMapTemplate$class.$plus:(Lscala/collection/generic/MutableMapTemplate;Lscala/Tuple2;Lscala/Tuple2;Lscala/collection/Sequence;)Lscala/collection/generic/MutableMapTemplate;
   7:	areturn
  LineNumberTable: 
   line 27: 0

  LocalVariableTable: 
   Start  Length  Slot  Name   Signature
   0      8      0    this       Lscala/collection/mutable/ImmutableMapAdaptor;
   0      8      1    elem1       Lscala/Tuple2;
   0      8      2    elem2       Lscala/Tuple2;
   0      8      3    elems       Lscala/collection/Sequence;


public scala.collection.generic.MutableMapTemplate $plus(scala.Tuple2);
  Code:
   Stack=2, Locals=2, Args_size=2
   0:	aload_0
   1:	aload_1
   2:	invokestatic	#782; //Method scala/collection/generic/MutableMapTemplate$class.$plus:(Lscala/collection/generic/MutableMapTemplate;Lscala/Tuple2;)Lscala/collection/generic/MutableMapTemplate;
   5:	areturn
  LineNumberTable: 
   line 27: 0

  LocalVariableTable: 
   Start  Length  Slot  Name   Signature
   0      6      0    this       Lscala/collection/mutable/ImmutableMapAdaptor;
   0      6      1    kv       Lscala/Tuple2;


public java.lang.Object cached(java.lang.Object, scala.Function0);
  Code:
   Stack=3, Locals=3, Args_size=3
   0:	aload_0
   1:	aload_1
   2:	aload_2
   3:	invokestatic	#785; //Method scala/collection/generic/MutableMapTemplate$class.cached:(Lscala/collection/generic/MutableMapTemplate;Ljava/lang/Object;Lscala/Function0;)Ljava/lang/Object;
   6:	areturn
  LineNumberTable: 
   line 27: 0

  LocalVariableTable: 
   Start  Length  Slot  Name   Signature
   0      7      0    this       Lscala/collection/mutable/ImmutableMapAdaptor;
   0      7      1    key       Ljava/lang/Object;
   0      7      2    op       Lscala/Function0;


public scala.collection.mutable.Map updated(java.lang.Object, java.lang.Object);
  Code:
   Stack=3, Locals=3, Args_size=3
   0:	aload_0
   1:	aload_1
   2:	aload_2
   3:	invokestatic	#788; //Method scala/collection/generic/MutableMapTemplate$class.updated:(Lscala/collection/generic/MutableMapTemplate;Ljava/lang/Object;Ljava/lang/Object;)Lscala/collection/mutable/Map;
   6:	areturn
  LineNumberTable: 
   line 27: 0

  LocalVariableTable: 
   Start  Length  Slot  Name   Signature
   0      7      0    this       Lscala/collection/mutable/ImmutableMapAdaptor;
   0      7      1    key       Ljava/lang/Object;
   0      7      2    value       Ljava/lang/Object;


public scala.Option put(java.lang.Object, java.lang.Object);
  Code:
   Stack=3, Locals=3, Args_size=3
   0:	aload_0
   1:	aload_1
   2:	aload_2
   3:	invokestatic	#793; //Method scala/collection/generic/MutableMapTemplate$class.put:(Lscala/collection/generic/MutableMapTemplate;Ljava/lang/Object;Ljava/lang/Object;)Lscala/Option;
   6:	areturn
  LineNumberTable: 
   line 27: 0

  LocalVariableTable: 
   Start  Length  Slot  Name   Signature
   0      7      0    this       Lscala/collection/mutable/ImmutableMapAdaptor;
   0      7      1    key       Ljava/lang/Object;
   0      7      2    value       Ljava/lang/Object;


public scala.collection.generic.Builder newBuilder();
  Code:
   Stack=1, Locals=1, Args_size=1
   0:	aload_0
   1:	invokestatic	#797; //Method scala/collection/generic/MutableMapTemplate$class.newBuilder:(Lscala/collection/generic/MutableMapTemplate;)Lscala/collection/generic/Builder;
   4:	areturn
  LineNumberTable: 
   line 27: 0


public int identityHashCode();
  Code:
   Stack=1, Locals=1, Args_size=1
   0:	aload_0
   1:	invokestatic	#801; //Method scala/Unhashable$class.identityHashCode:(Lscala/Unhashable;)I
   4:	ireturn
  LineNumberTable: 
   line 27: 0


public int hashCode();
  Code:
   Stack=1, Locals=1, Args_size=1
   0:	aload_0
   1:	invokestatic	#804; //Method scala/Unhashable$class.hashCode:(Lscala/Unhashable;)I
   4:	ireturn
  LineNumberTable: 
   line 27: 0


public final int scala$Unhashable$$super$hashCode();
  Code:
   Stack=1, Locals=1, Args_size=1
   0:	aload_0
   1:	invokespecial	#807; //Method java/lang/Object.hashCode:()I
   4:	ireturn
  LineNumberTable: 
   line 27: 0


public scala.collection.mutable.Map empty();
  Code:
   Stack=1, Locals=1, Args_size=1
   0:	aload_0
   1:	invokestatic	#810; //Method scala/collection/mutable/Map$class.empty:(Lscala/collection/mutable/Map;)Lscala/collection/mutable/Map;
   4:	areturn
  LineNumberTable: 
   line 27: 0


}

