Compiled from "ImmutableMapAdaptor.scala"
public class scala.collection.mutable.ImmutableMapAdaptor extends java.lang.Object implements scala.collection.mutable.Map,scala.ScalaObject,java.io.Serializable
  SourceFile: "ImmutableMapAdaptor.scala"
  Signature: length = 0x2
   03 73 
  ScalaSig: length = 0x572
   05 00 FFFFFF81 4E 06 04 01 02 00 09 02 13 49 6D 6D 75
   74 61 62 6C 65 4D 61 70 41 64 61 70 74 6F 72 0A
   02 03 04 01 07 6D 75 74 61 62 6C 65 0A 02 05 06
   01 0A 63 6F 6C 6C 65 63 74 69 6F 6E 0A 01 07 01
   05 73 63 61 6C 61 03 00 15 03 0A 19 24 13 04 00
   0B 13 26 10 02 0C 11 0D 01 0D 0A 02 0E 0F 01 04
   6C 61 6E 67 0A 01 10 01 04 6A 61 76 61 09 02 12
   0D 02 06 4F 62 6A 65 63 74 10 04 14 15 17 23 0D
   01 02 09 02 16 02 02 03 4D 61 70 10 02 18 19 0C
   00 04 08 1A 00 FFFFFF84 FFFFFF80 FFFFFF80 FFFFFFC2 00 1B 02 01 41 11 02
   1C 20 10 02 1D 1E 0D 01 06 09 02 1F 06 02 07 4E
   6F 74 68 69 6E 67 10 02 1D 21 09 02 22 06 02 03
   41 6E 79 10 02 18 24 04 08 25 00 FFFFFF84 FFFFFF80 FFFFFF80 FFFFFFC2 00
   1B 02 01 42 10 02 1D 27 09 02 28 06 02 0B 53 63
   61 6C 61 4F 62 6A 65 63 74 08 08 2A 00 FFFFFF82 FFFFFFC0 FFFFFF80
   FFFFFF84 08 2B 01 04 69 6D 61 70 15 01 2C 10 04 2D 30
   17 23 0D 01 2E 0A 02 2F 04 01 09 69 6D 6D 75 74
   61 62 6C 65 09 02 16 2E 08 08 32 00 FFFFFF82 FFFFFFC0 FFFFFF80 FFFFFF84
   08 33 01 08 69 6D 61 70 5F 24 65 71 14 02 34 37
   10 02 1D 35 09 02 36 06 02 04 55 6E 69 74 08 07
   38 31 FFFFFF81 FFFFFF80 FFFFFFC0 00 2C 01 03 78 24 31 08 08 3A 00
   FFFFFF82 FFFFFF80 FFFFFFA0 FFFFFFA0 04 2C 01 05 69 6D 61 70 20 08 05 3C
   00 FFFFFF84 00 3D 01 06 3C 69 6E 69 74 3E 14 02 3E 3F
   10 04 14 00 17 23 08 05 2A 3B FFFFFFC0 00 2C 08 05 41
   00 FFFFFF84 20 42 01 04 73 69 7A 65 15 01 43 10 02 1D
   44 09 02 45 06 02 03 49 6E 74 08 05 47 00 FFFFFF84 00
   48 01 03 67 65 74 14 02 49 4C 10 03 1D 4A 23 09
   02 4B 06 02 06 4F 70 74 69 6F 6E 08 05 4D 46 FFFFFFC0
   00 17 01 03 6B 65 79 08 05 4F 00 FFFFFF84 20 50 01 07
   69 73 45 6D 70 74 79 15 01 51 10 02 1D 52 09 02
   53 06 02 07 42 6F 6F 6C 65 61 6E 08 05 55 00 FFFFFF84
   20 56 01 05 61 70 70 6C 79 14 02 23 57 08 05 4D
   54 FFFFFFC0 00 17 08 05 59 00 FFFFFF84 20 5A 01 08 63 6F 6E
   74 61 69 6E 73 14 02 51 5B 08 05 4D 58 FFFFFFC0 00 17
   08 05 5D 00 FFFFFF84 20 5E 01 0B 69 73 44 65 66 69 6E
   65 64 41 74 14 02 51 5F 08 05 4D 5C FFFFFFC0 00 17 08
   05 61 00 FFFFFF84 20 62 01 06 6B 65 79 53 65 74 15 01
   63 10 03 64 65 17 0D 01 04 09 02 66 04 02 03 53
   65 74 08 05 68 00 FFFFFF84 20 69 01 0C 6B 65 79 73 49
   74 65 72 61 74 6F 72 15 01 6A 10 03 64 6B 17 09
   02 6C 04 02 08 49 74 65 72 61 74 6F 72 08 05 6E
   00 FFFFFF84 20 69 01 04 6B 65 79 73 28 03 6D 70 73 10
   02 1D 71 09 02 72 06 02 0A 64 65 70 72 65 63 61
   74 65 64 21 01 74 01 1A 75 73 65 20 60 6B 65 79
   73 49 74 65 72 61 74 6F 72 27 20 69 6E 73 74 65
   61 64 08 05 76 00 FFFFFF84 20 77 01 0E 76 61 6C 75 65
   73 49 74 65 72 61 62 6C 65 15 01 78 10 03 64 79
   23 09 02 7A 04 02 08 49 74 65 72 61 62 6C 65 08
   05 7C 00 FFFFFF84 20 7D 01 0E 76 61 6C 75 65 73 49 74
   65 72 61 74 6F 72 15 01 7E 10 03 64 6B 23 08 06
   FFFFFF81 00 00 FFFFFF84 20 7D 01 06 76 61 6C 75 65 73 28 04
   7F 70 FFFFFF81 02 21 02 FFFFFF81 03 01 1C 75 73 65 20 60 76
   61 6C 75 65 73 49 74 65 72 61 74 6F 72 27 20 69
   6E 73 74 65 61 64 08 07 FFFFFF81 05 00 FFFFFF84 00 FFFFFF81 06 01
   08 69 74 65 72 61 74 6F 72 15 02 FFFFFF81 07 10 04 64
   6B FFFFFF81 08 10 05 1D FFFFFF81 09 17 23 09 03 FFFFFF81 0A 06 02
   06 54 75 70 6C 65 32 08 07 FFFFFF81 0C 00 FFFFFF84 20 FFFFFF81 06
   01 08 65 6C 65 6D 65 6E 74 73 28 05 FFFFFF81 0B 70 FFFFFF81
   0E 21 02 FFFFFF81 0F 01 16 75 73 65 20 60 69 74 65 72
   61 74 6F 72 27 20 69 6E 73 74 65 61 64 08 07 FFFFFF81
   11 00 FFFFFF84 20 FFFFFF81 12 01 06 74 6F 4C 69 73 74 15 02
   FFFFFF81 13 10 06 FFFFFF81 14 FFFFFF81 1C FFFFFF81 08 0E 04 FFFFFF81 15 FFFFFF81 1A
   0E 04 FFFFFF81 16 FFFFFF81 19 0D 02 FFFFFF81 17 0A 03 FFFFFF81 18 08 01
   06 3C 72 6F 6F 74 3E 09 01 07 09 03 FFFFFF81 1B 06 01
   07 70 61 63 6B 61 67 65 09 04 FFFFFF81 1D FFFFFF81 1E 02 04
   4C 69 73 74 0A 03 FFFFFF81 1B 06 08 07 FFFFFF81 20 00 FFFFFF84 20
   FFFFFF81 21 01 06 75 70 64 61 74 65 14 05 34 FFFFFF81 22 FFFFFF81
   23 08 06 4D FFFFFF81 1F FFFFFFC0 00 17 08 07 FFFFFF81 24 FFFFFF81 1F FFFFFFC0
   00 23 01 05 76 61 6C 75 65 08 07 FFFFFF81 26 00 FFFFFF84 00
   FFFFFF81 27 01 09 24 6D 69 6E 75 73 24 65 71 14 04 FFFFFF81
   28 FFFFFF81 29 0D 01 00 08 06 4D FFFFFF81 25 FFFFFFC0 00 17 08 07
   FFFFFF81 2B 00 FFFFFF84 00 FFFFFF81 2C 01 08 24 70 6C 75 73 24 65
   71 14 04 FFFFFF81 28 FFFFFF81 2D 08 08 FFFFFF81 2E FFFFFF81 2A FFFFFFC0 00 FFFFFF81
   08 01 02 6B 76 08 07 FFFFFF81 30 00 FFFFFF84 20 FFFFFF81 31 01 05
   63 6C 65 61 72 14 01 34 08 07 FFFFFF81 33 00 FFFFFF84 20 FFFFFF81
   34 01 09 74 72 61 6E 73 66 6F 72 6D 14 04 FFFFFF81 28
   FFFFFF81 35 08 08 FFFFFF81 36 FFFFFF81 32 FFFFFFC0 00 FFFFFF81 37 01 01 66 10
   06 1D FFFFFF81 38 17 23 23 09 03 FFFFFF81 39 06 02 09 46 75
   6E 63 74 69 6F 6E 32 08 07 FFFFFF81 3B 00 FFFFFF84 20 FFFFFF81 3C
   01 06 72 65 74 61 69 6E 14 04 FFFFFF81 28 FFFFFF81 3D 08 08
   FFFFFF81 3E FFFFFF81 3A FFFFFFC0 00 FFFFFF81 3F 01 01 70 10 06 1D FFFFFF81 38
   17 23 51 08 07 FFFFFF81 41 00 FFFFFF84 20 FFFFFF81 42 01 08 74 6F
   53 74 72 69 6E 67 14 02 FFFFFF81 43 10 04 FFFFFF81 44 FFFFFF81 47
   0E 03 1D FFFFFF81 45 09 03 FFFFFF81 46 06 01 06 50 72 65 64
   65 66 09 04 FFFFFF81 48 FFFFFF81 49 02 06 53 74 72 69 6E 67
   0A 03 FFFFFF81 46 06 28 03 00 FFFFFF81 4B 10 03 1D FFFFFF81 4C 09
   03 FFFFFF81 4D 06 02 0C 73 65 72 69 61 6C 69 7A 61 62
   6C 65 
  InnerClass: 
   public abstract $less$colon$less=class scala/Predef$$less$colon$less of class scala/Predef
   public WithFilter=class scala/collection/TraversableLike$WithFilter of class scala/collection/TraversableLike
   public final $anonfun$retain$1=class scala/collection/mutable/ImmutableMapAdaptor$$anonfun$retain$1 of class scala/collection/mutable/ImmutableMapAdaptor
  minor version: 0
  major version: 49
  Constant pool:
Asciz	SourceFile;
Asciz	ImmutableMapAdaptor.scala;
Asciz	imap;
Asciz	Lscala/collection/immutable/Map;;
Asciz	Lscala/collection/immutable/Map<TA;TB;>;;
Asciz	Signature;
Asciz	<init>;
Asciz	(Lscala/collection/immutable/Map;)V;
Asciz	Code;
Asciz	LineNumberTable;
Asciz	scala/collection/mutable/ImmutableMapAdaptor;
class	scala/collection/mutable/ImmutableMapAdaptor
NameAndType	imap:Lscala/collection/immutable/Map;
Field	scala/collection/mutable/ImmutableMapAdaptor.imap:Lscala/collection/immutable/Map;
Asciz	java/lang/Object;
class	java/lang/Object
Asciz	()V;
NameAndType	"<init>":()V
Method	java/lang/Object."<init>":()V
Asciz	scala/collection/TraversableLike$class;
class	scala/collection/TraversableLike$class
Asciz	$init$;
Asciz	(Lscala/collection/TraversableLike;)V;
NameAndType	$init$:(Lscala/collection/TraversableLike;)V
Method	scala/collection/TraversableLike$class.$init$:(Lscala/collection/TraversableLike;)V
Asciz	scala/collection/generic/GenericTraversableTemplate$class;
class	scala/collection/generic/GenericTraversableTemplate$class
Asciz	(Lscala/collection/generic/GenericTraversableTemplate;)V;
NameAndType	$init$:(Lscala/collection/generic/GenericTraversableTemplate;)V
Method	scala/collection/generic/GenericTraversableTemplate$class.$init$:(Lscala/collection/generic/GenericTraversableTemplate;)V
Asciz	scala/collection/Traversable$class;
class	scala/collection/Traversable$class
Asciz	(Lscala/collection/Traversable;)V;
NameAndType	$init$:(Lscala/collection/Traversable;)V
Method	scala/collection/Traversable$class.$init$:(Lscala/collection/Traversable;)V
Asciz	scala/collection/mutable/Traversable$class;
class	scala/collection/mutable/Traversable$class
Asciz	(Lscala/collection/mutable/Traversable;)V;
NameAndType	$init$:(Lscala/collection/mutable/Traversable;)V
Method	scala/collection/mutable/Traversable$class.$init$:(Lscala/collection/mutable/Traversable;)V
Asciz	scala/collection/IterableLike$class;
class	scala/collection/IterableLike$class
Asciz	(Lscala/collection/IterableLike;)V;
NameAndType	$init$:(Lscala/collection/IterableLike;)V
Method	scala/collection/IterableLike$class.$init$:(Lscala/collection/IterableLike;)V
Asciz	scala/collection/Iterable$class;
class	scala/collection/Iterable$class
Asciz	(Lscala/collection/Iterable;)V;
NameAndType	$init$:(Lscala/collection/Iterable;)V
Method	scala/collection/Iterable$class.$init$:(Lscala/collection/Iterable;)V
Asciz	scala/collection/mutable/Iterable$class;
class	scala/collection/mutable/Iterable$class
Asciz	(Lscala/collection/mutable/Iterable;)V;
NameAndType	$init$:(Lscala/collection/mutable/Iterable;)V
Method	scala/collection/mutable/Iterable$class.$init$:(Lscala/collection/mutable/Iterable;)V
Asciz	scala/Function1$class;
class	scala/Function1$class
Asciz	(Lscala/Function1;)V;
NameAndType	$init$:(Lscala/Function1;)V
Method	scala/Function1$class.$init$:(Lscala/Function1;)V
Asciz	scala/PartialFunction$class;
class	scala/PartialFunction$class
Asciz	(Lscala/PartialFunction;)V;
NameAndType	$init$:(Lscala/PartialFunction;)V
Method	scala/PartialFunction$class.$init$:(Lscala/PartialFunction;)V
Asciz	scala/collection/generic/Subtractable$class;
class	scala/collection/generic/Subtractable$class
Asciz	(Lscala/collection/generic/Subtractable;)V;
NameAndType	$init$:(Lscala/collection/generic/Subtractable;)V
Method	scala/collection/generic/Subtractable$class.$init$:(Lscala/collection/generic/Subtractable;)V
Asciz	scala/collection/MapLike$class;
class	scala/collection/MapLike$class
Asciz	(Lscala/collection/MapLike;)V;
NameAndType	$init$:(Lscala/collection/MapLike;)V
Method	scala/collection/MapLike$class.$init$:(Lscala/collection/MapLike;)V
Asciz	scala/collection/Map$class;
class	scala/collection/Map$class
Asciz	(Lscala/collection/Map;)V;
NameAndType	$init$:(Lscala/collection/Map;)V
Method	scala/collection/Map$class.$init$:(Lscala/collection/Map;)V
Asciz	scala/collection/mutable/Cloneable$class;
class	scala/collection/mutable/Cloneable$class
Asciz	(Lscala/collection/mutable/Cloneable;)V;
NameAndType	$init$:(Lscala/collection/mutable/Cloneable;)V
Method	scala/collection/mutable/Cloneable$class.$init$:(Lscala/collection/mutable/Cloneable;)V
Asciz	scala/collection/mutable/MapLikeBase$class;
class	scala/collection/mutable/MapLikeBase$class
Asciz	(Lscala/collection/mutable/MapLikeBase;)V;
NameAndType	$init$:(Lscala/collection/mutable/MapLikeBase;)V
Method	scala/collection/mutable/MapLikeBase$class.$init$:(Lscala/collection/mutable/MapLikeBase;)V
Asciz	scala/collection/generic/Growable$class;
class	scala/collection/generic/Growable$class
Asciz	(Lscala/collection/generic/Growable;)V;
NameAndType	$init$:(Lscala/collection/generic/Growable;)V
Method	scala/collection/generic/Growable$class.$init$:(Lscala/collection/generic/Growable;)V
Asciz	scala/collection/mutable/Builder$class;
class	scala/collection/mutable/Builder$class
Asciz	(Lscala/collection/mutable/Builder;)V;
NameAndType	$init$:(Lscala/collection/mutable/Builder;)V
Method	scala/collection/mutable/Builder$class.$init$:(Lscala/collection/mutable/Builder;)V
Asciz	scala/collection/generic/Shrinkable$class;
class	scala/collection/generic/Shrinkable$class
Asciz	(Lscala/collection/generic/Shrinkable;)V;
NameAndType	$init$:(Lscala/collection/generic/Shrinkable;)V
Method	scala/collection/generic/Shrinkable$class.$init$:(Lscala/collection/generic/Shrinkable;)V
Asciz	scala/collection/mutable/MapLike$class;
class	scala/collection/mutable/MapLike$class
Asciz	(Lscala/collection/mutable/MapLike;)V;
NameAndType	$init$:(Lscala/collection/mutable/MapLike;)V
Method	scala/collection/mutable/MapLike$class.$init$:(Lscala/collection/mutable/MapLike;)V
Asciz	scala/collection/mutable/Map$class;
class	scala/collection/mutable/Map$class
Asciz	(Lscala/collection/mutable/Map;)V;
NameAndType	$init$:(Lscala/collection/mutable/Map;)V
Method	scala/collection/mutable/Map$class.$init$:(Lscala/collection/mutable/Map;)V
Asciz	this;
Asciz	Lscala/collection/mutable/ImmutableMapAdaptor;;
Asciz	LocalVariableTable;
Asciz	(Lscala/collection/immutable/Map<TA;TB;>;)V;
Asciz	$minus$eq;
Asciz	(Ljava/lang/Object;)Lscala/collection/mutable/MapLike;;
Asciz	(Ljava/lang/Object;)Lscala/collection/mutable/ImmutableMapAdaptor;;
NameAndType	$minus$eq:(Ljava/lang/Object;)Lscala/collection/mutable/ImmutableMapAdaptor;
Method	scala/collection/mutable/ImmutableMapAdaptor.$minus$eq:(Ljava/lang/Object;)Lscala/collection/mutable/ImmutableMapAdaptor;
Asciz	key;
Asciz	Ljava/lang/Object;;
Asciz	(Ljava/lang/Object;)Lscala/collection/generic/Shrinkable;;
Asciz	elem;
Asciz	$plus$eq;
Asciz	(Lscala/Tuple2;)Lscala/collection/mutable/MapLike;;
Asciz	(Lscala/Tuple2;)Lscala/collection/mutable/ImmutableMapAdaptor;;
NameAndType	$plus$eq:(Lscala/Tuple2;)Lscala/collection/mutable/ImmutableMapAdaptor;
Method	scala/collection/mutable/ImmutableMapAdaptor.$plus$eq:(Lscala/Tuple2;)Lscala/collection/mutable/ImmutableMapAdaptor;
Asciz	kv;
Asciz	Lscala/Tuple2;;
Asciz	(Ljava/lang/Object;)Lscala/collection/mutable/Builder;;
Asciz	scala/Tuple2;
class	scala/Tuple2
Asciz	(Ljava/lang/Object;)Lscala/collection/generic/Growable;;
Asciz	transform;
Asciz	(Lscala/Function2;)Lscala/collection/mutable/MapLike;;
Asciz	(Lscala/Function2;)Lscala/collection/mutable/ImmutableMapAdaptor;;
NameAndType	transform:(Lscala/Function2;)Lscala/collection/mutable/ImmutableMapAdaptor;
Method	scala/collection/mutable/ImmutableMapAdaptor.transform:(Lscala/Function2;)Lscala/collection/mutable/ImmutableMapAdaptor;
Asciz	f;
Asciz	Lscala/Function2;;
Asciz	retain;
NameAndType	retain:(Lscala/Function2;)Lscala/collection/mutable/ImmutableMapAdaptor;
Method	scala/collection/mutable/ImmutableMapAdaptor.retain:(Lscala/Function2;)Lscala/collection/mutable/ImmutableMapAdaptor;
Asciz	p;
Asciz	empty;
Asciz	()Lscala/collection/Map;;
Asciz	scala/collection/mutable/Map;
class	scala/collection/mutable/Map
Asciz	()Lscala/collection/mutable/Map;;
NameAndType	empty:()Lscala/collection/mutable/Map;
InterfaceMethod	scala/collection/mutable/Map.empty:()Lscala/collection/mutable/Map;
Asciz	updated;
Asciz	(Ljava/lang/Object;Ljava/lang/Object;)Lscala/collection/Map;;
Asciz	scala/collection/mutable/MapLike;
class	scala/collection/mutable/MapLike
Asciz	(Ljava/lang/Object;Ljava/lang/Object;)Lscala/collection/mutable/Map;;
NameAndType	updated:(Ljava/lang/Object;Ljava/lang/Object;)Lscala/collection/mutable/Map;
InterfaceMethod	scala/collection/mutable/MapLike.updated:(Ljava/lang/Object;Ljava/lang/Object;)Lscala/collection/mutable/Map;
Asciz	value;
Asciz	$minus;
Asciz	(Ljava/lang/Object;)Lscala/collection/Map;;
Asciz	(Ljava/lang/Object;)Lscala/collection/mutable/Map;;
NameAndType	$minus:(Ljava/lang/Object;)Lscala/collection/mutable/Map;
InterfaceMethod	scala/collection/mutable/MapLike.$minus:(Ljava/lang/Object;)Lscala/collection/mutable/Map;
Asciz	(Ljava/lang/Object;)Lscala/collection/generic/Subtractable;;
Asciz	clone;
Asciz	()Ljava/lang/Object;;
NameAndType	clone:()Lscala/collection/mutable/Map;
InterfaceMethod	scala/collection/mutable/MapLike.clone:()Lscala/collection/mutable/Map;
Asciz	result;
NameAndType	result:()Lscala/collection/mutable/Map;
InterfaceMethod	scala/collection/mutable/MapLike.result:()Lscala/collection/mutable/Map;
Asciz	(Ljava/lang/Object;Ljava/lang/Object;Lscala/collection/Seq;)Lscala/collection/generic/Subtractable;;
Asciz	(Ljava/lang/Object;Ljava/lang/Object;Lscala/collection/Seq;)Lscala/collection/mutable/Map;;
NameAndType	$minus:(Ljava/lang/Object;Ljava/lang/Object;Lscala/collection/Seq;)Lscala/collection/mutable/Map;
InterfaceMethod	scala/collection/mutable/MapLike.$minus:(Ljava/lang/Object;Ljava/lang/Object;Lscala/collection/Seq;)Lscala/collection/mutable/Map;
Asciz	elem1;
Asciz	elem2;
Asciz	elems;
Asciz	Lscala/collection/Seq;;
Asciz	$minus$minus;
Asciz	(Lscala/collection/Traversable;)Lscala/collection/generic/Subtractable;;
Asciz	(Lscala/collection/Traversable;)Lscala/collection/mutable/Map;;
NameAndType	$minus$minus:(Lscala/collection/Traversable;)Lscala/collection/mutable/Map;
InterfaceMethod	scala/collection/mutable/MapLike.$minus$minus:(Lscala/collection/Traversable;)Lscala/collection/mutable/Map;
Asciz	Lscala/collection/Traversable;;
Asciz	(Lscala/collection/Iterator;)Lscala/collection/generic/Subtractable;;
Asciz	(Lscala/collection/Iterator;)Lscala/collection/mutable/Map;;
NameAndType	$minus$minus:(Lscala/collection/Iterator;)Lscala/collection/mutable/Map;
InterfaceMethod	scala/collection/mutable/MapLike.$minus$minus:(Lscala/collection/Iterator;)Lscala/collection/mutable/Map;
Asciz	iter;
Asciz	Lscala/collection/Iterator;;
Asciz	$plus;
Asciz	(Lscala/Tuple2;)Lscala/collection/Map;;
Asciz	scala/collection/mutable/MapLikeBase;
class	scala/collection/mutable/MapLikeBase
Asciz	(Lscala/Tuple2;)Lscala/collection/mutable/Map;;
NameAndType	$plus:(Lscala/Tuple2;)Lscala/collection/mutable/Map;
InterfaceMethod	scala/collection/mutable/MapLikeBase.$plus:(Lscala/Tuple2;)Lscala/collection/mutable/Map;
Asciz	andThen;
Asciz	(Lscala/Function1;)Lscala/Function1;;
Asciz	scala/PartialFunction;
class	scala/PartialFunction
Asciz	(Lscala/Function1;)Lscala/PartialFunction;;
NameAndType	andThen:(Lscala/Function1;)Lscala/PartialFunction;
InterfaceMethod	scala/PartialFunction.andThen:(Lscala/Function1;)Lscala/PartialFunction;
Asciz	g;
Asciz	Lscala/Function1;;
Asciz	thisCollection;
Asciz	()Lscala/collection/Traversable;;
Asciz	scala/collection/IterableLike;
class	scala/collection/IterableLike
Asciz	()Lscala/collection/Iterable;;
NameAndType	thisCollection:()Lscala/collection/Iterable;
InterfaceMethod	scala/collection/IterableLike.thisCollection:()Lscala/collection/Iterable;
Asciz	toCollection;
Asciz	(Ljava/lang/Object;)Lscala/collection/Traversable;;
Asciz	(Ljava/lang/Object;)Lscala/collection/Iterable;;
NameAndType	toCollection:(Ljava/lang/Object;)Lscala/collection/Iterable;
InterfaceMethod	scala/collection/IterableLike.toCollection:(Ljava/lang/Object;)Lscala/collection/Iterable;
Asciz	repr;
Asciz	view;
Asciz	()Lscala/collection/TraversableView;;
Asciz	()Lscala/collection/IterableView;;
NameAndType	view:()Lscala/collection/IterableView;
InterfaceMethod	scala/collection/IterableLike.view:()Lscala/collection/IterableView;
Asciz	(II)Lscala/collection/TraversableView;;
Asciz	(II)Lscala/collection/IterableView;;
NameAndType	view:(II)Lscala/collection/IterableView;
InterfaceMethod	scala/collection/IterableLike.view:(II)Lscala/collection/IterableView;
Asciz	from;
Asciz	I;
Asciz	until;
Asciz	()Lscala/collection/generic/Subtractable;;
Asciz	scala/collection/TraversableLike;
class	scala/collection/TraversableLike
NameAndType	repr:()Ljava/lang/Object;
InterfaceMethod	scala/collection/TraversableLike.repr:()Ljava/lang/Object;
Asciz	scala/collection/generic/Subtractable;
class	scala/collection/generic/Subtractable
Asciz	toString;
Asciz	()Ljava/lang/String;;
Asciz	()Lscala/collection/immutable/Map;;
NameAndType	imap:()Lscala/collection/immutable/Map;
Method	scala/collection/mutable/ImmutableMapAdaptor.imap:()Lscala/collection/immutable/Map;
Asciz	scala/collection/MapLike;
class	scala/collection/MapLike
NameAndType	toString:()Ljava/lang/String;
InterfaceMethod	scala/collection/MapLike.toString:()Ljava/lang/String;
Asciz	scala/collection/mutable/ImmutableMapAdaptor$$anonfun$retain$1;
class	scala/collection/mutable/ImmutableMapAdaptor$$anonfun$retain$1
Asciz	(Lscala/collection/mutable/ImmutableMapAdaptor;Lscala/Function2;)V;
NameAndType	"<init>":(Lscala/collection/mutable/ImmutableMapAdaptor;Lscala/Function2;)V
Method	scala/collection/mutable/ImmutableMapAdaptor$$anonfun$retain$1."<init>":(Lscala/collection/mutable/ImmutableMapAdaptor;Lscala/Function2;)V
Asciz	filter;
Asciz	(Lscala/Function1;)Ljava/lang/Object;;
NameAndType	filter:(Lscala/Function1;)Ljava/lang/Object;
InterfaceMethod	scala/collection/TraversableLike.filter:(Lscala/Function1;)Ljava/lang/Object;
Asciz	scala/collection/immutable/Map;
class	scala/collection/immutable/Map
Asciz	imap_$eq;
NameAndType	imap_$eq:(Lscala/collection/immutable/Map;)V
Method	scala/collection/mutable/ImmutableMapAdaptor.imap_$eq:(Lscala/collection/immutable/Map;)V
Asciz	p$1;
Asciz	(Lscala/Function2<TA;TB;Ljava/lang/Boolean;>;)Lscala/collection/mutable/ImmutableMapAdaptor<TA;TB;>;;
Asciz	scala/collection/immutable/Map$;
class	scala/collection/immutable/Map$
Asciz	MODULE$;
Asciz	Lscala/collection/immutable/Map$;;
NameAndType	MODULE$:Lscala/collection/immutable/Map$;
Field	scala/collection/immutable/Map$.MODULE$:Lscala/collection/immutable/Map$;
Asciz	canBuildFrom;
Asciz	()Lscala/collection/generic/CanBuildFrom;;
NameAndType	canBuildFrom:()Lscala/collection/generic/CanBuildFrom;
Method	scala/collection/immutable/Map$.canBuildFrom:()Lscala/collection/generic/CanBuildFrom;
Asciz	scala/collection/immutable/MapLike;
class	scala/collection/immutable/MapLike
Asciz	(Lscala/Function2;Lscala/collection/generic/CanBuildFrom;)Ljava/lang/Object;;
NameAndType	transform:(Lscala/Function2;Lscala/collection/generic/CanBuildFrom;)Ljava/lang/Object;
InterfaceMethod	scala/collection/immutable/MapLike.transform:(Lscala/Function2;Lscala/collection/generic/CanBuildFrom;)Ljava/lang/Object;
Asciz	(Lscala/Function2<TA;TB;TB;>;)Lscala/collection/mutable/ImmutableMapAdaptor<TA;TB;>;;
Asciz	clear;
NameAndType	empty:()Lscala/collection/immutable/Map;
InterfaceMethod	scala/collection/immutable/Map.empty:()Lscala/collection/immutable/Map;
Asciz	(Lscala/Tuple2;)Lscala/collection/immutable/Map;;
NameAndType	$plus:(Lscala/Tuple2;)Lscala/collection/immutable/Map;
InterfaceMethod	scala/collection/immutable/Map.$plus:(Lscala/Tuple2;)Lscala/collection/immutable/Map;
Asciz	(Lscala/Tuple2<TA;TB;>;)Lscala/collection/mutable/ImmutableMapAdaptor<TA;TB;>;;
NameAndType	$minus:(Ljava/lang/Object;)Lscala/collection/Map;
InterfaceMethod	scala/collection/MapLike.$minus:(Ljava/lang/Object;)Lscala/collection/Map;
Asciz	(TA;)Lscala/collection/mutable/ImmutableMapAdaptor<TA;TB;>;;
Asciz	update;
Asciz	(Ljava/lang/Object;Ljava/lang/Object;)V;
Asciz	(Ljava/lang/Object;Ljava/lang/Object;)Lscala/collection/immutable/Map;;
NameAndType	updated:(Ljava/lang/Object;Ljava/lang/Object;)Lscala/collection/immutable/Map;
InterfaceMethod	scala/collection/immutable/MapLike.updated:(Ljava/lang/Object;Ljava/lang/Object;)Lscala/collection/immutable/Map;
Asciz	(TA;TB;)V;
Asciz	toList;
Asciz	()Lscala/collection/immutable/List;;
NameAndType	toList:()Lscala/collection/immutable/List;
InterfaceMethod	scala/collection/TraversableLike.toList:()Lscala/collection/immutable/List;
Asciz	()Lscala/collection/immutable/List<Lscala/Tuple2<TA;TB;>;>;;
Asciz	elements;
Asciz	()Lscala/collection/Iterator;;
Asciz	iterator;
NameAndType	iterator:()Lscala/collection/Iterator;
Method	scala/collection/mutable/ImmutableMapAdaptor.iterator:()Lscala/collection/Iterator;
Asciz	()Lscala/collection/Iterator<Lscala/Tuple2<TA;TB;>;>;;
Asciz	Deprecated;
InterfaceMethod	scala/collection/MapLike.iterator:()Lscala/collection/Iterator;
Asciz	values;
Asciz	valuesIterator;
NameAndType	valuesIterator:()Lscala/collection/Iterator;
InterfaceMethod	scala/collection/MapLike.valuesIterator:()Lscala/collection/Iterator;
Asciz	()Lscala/collection/Iterator<TB;>;;
Asciz	valuesIterable;
NameAndType	valuesIterable:()Lscala/collection/Iterable;
InterfaceMethod	scala/collection/MapLike.valuesIterable:()Lscala/collection/Iterable;
Asciz	()Lscala/collection/Iterable<TB;>;;
Asciz	keys;
Asciz	keysIterator;
NameAndType	keysIterator:()Lscala/collection/Iterator;
InterfaceMethod	scala/collection/MapLike.keysIterator:()Lscala/collection/Iterator;
Asciz	()Lscala/collection/Iterator<TA;>;;
Asciz	keySet;
Asciz	()Lscala/collection/Set;;
NameAndType	keySet:()Lscala/collection/Set;
InterfaceMethod	scala/collection/MapLike.keySet:()Lscala/collection/Set;
Asciz	()Lscala/collection/Set<TA;>;;
Asciz	isDefinedAt;
Asciz	(Ljava/lang/Object;)Z;
NameAndType	isDefinedAt:(Ljava/lang/Object;)Z
InterfaceMethod	scala/collection/MapLike.isDefinedAt:(Ljava/lang/Object;)Z
Asciz	(TA;)Z;
Asciz	contains;
NameAndType	contains:(Ljava/lang/Object;)Z
InterfaceMethod	scala/collection/MapLike.contains:(Ljava/lang/Object;)Z
Asciz	apply;
Asciz	(Ljava/lang/Object;)Ljava/lang/Object;;
NameAndType	apply:(Ljava/lang/Object;)Ljava/lang/Object;
InterfaceMethod	scala/collection/MapLike.apply:(Ljava/lang/Object;)Ljava/lang/Object;
Asciz	(TA;)TB;;
Asciz	isEmpty;
Asciz	()Z;
NameAndType	isEmpty:()Z
InterfaceMethod	scala/collection/MapLike.isEmpty:()Z
Asciz	get;
Asciz	(Ljava/lang/Object;)Lscala/Option;;
NameAndType	get:(Ljava/lang/Object;)Lscala/Option;
InterfaceMethod	scala/collection/MapLike.get:(Ljava/lang/Object;)Lscala/Option;
Asciz	(TA;)Lscala/Option<TB;>;;
Asciz	size;
Asciz	()I;
NameAndType	size:()I
InterfaceMethod	scala/collection/TraversableLike.size:()I
Asciz	()Lscala/collection/immutable/Map<TA;TB;>;;
Asciz	withFilter;
Asciz	(Lscala/Function1;)Lscala/collection/TraversableLike$WithFilter;;
Asciz	(Lscala/collection/TraversableLike;Lscala/Function1;)Lscala/collection/TraversableLike$WithFilter;;
NameAndType	withFilter:(Lscala/collection/TraversableLike;Lscala/Function1;)Lscala/collection/TraversableLike$WithFilter;
Method	scala/collection/TraversableLike$class.withFilter:(Lscala/collection/TraversableLike;Lscala/Function1;)Lscala/collection/TraversableLike$WithFilter;
Asciz	addString;
Asciz	(Lscala/collection/mutable/StringBuilder;)Lscala/collection/mutable/StringBuilder;;
Asciz	(Lscala/collection/TraversableLike;Lscala/collection/mutable/StringBuilder;)Lscala/collection/mutable/StringBuilder;;
NameAndType	addString:(Lscala/collection/TraversableLike;Lscala/collection/mutable/StringBuilder;)Lscala/collection/mutable/StringBuilder;
Method	scala/collection/TraversableLike$class.addString:(Lscala/collection/TraversableLike;Lscala/collection/mutable/StringBuilder;)Lscala/collection/mutable/StringBuilder;
Asciz	b;
Asciz	Lscala/collection/mutable/StringBuilder;;
Asciz	(Lscala/collection/mutable/StringBuilder;Ljava/lang/String;)Lscala/collection/mutable/StringBuilder;;
Asciz	(Lscala/collection/TraversableLike;Lscala/collection/mutable/StringBuilder;Ljava/lang/String;)Lscala/collection/mutable/StringBuilder;;
NameAndType	addString:(Lscala/collection/TraversableLike;Lscala/collection/mutable/StringBuilder;Ljava/lang/String;)Lscala/collection/mutable/StringBuilder;
Method	scala/collection/TraversableLike$class.addString:(Lscala/collection/TraversableLike;Lscala/collection/mutable/StringBuilder;Ljava/lang/String;)Lscala/collection/mutable/StringBuilder;
Asciz	sep;
Asciz	Ljava/lang/String;;
Asciz	mkString;
Asciz	(Lscala/collection/TraversableLike;)Ljava/lang/String;;
NameAndType	mkString:(Lscala/collection/TraversableLike;)Ljava/lang/String;
Method	scala/collection/TraversableLike$class.mkString:(Lscala/collection/TraversableLike;)Ljava/lang/String;
Asciz	(Ljava/lang/String;)Ljava/lang/String;;
Asciz	(Lscala/collection/TraversableLike;Ljava/lang/String;)Ljava/lang/String;;
NameAndType	mkString:(Lscala/collection/TraversableLike;Ljava/lang/String;)Ljava/lang/String;
Method	scala/collection/TraversableLike$class.mkString:(Lscala/collection/TraversableLike;Ljava/lang/String;)Ljava/lang/String;
Asciz	(Ljava/lang/String;Ljava/lang/String;Ljava/lang/String;)Ljava/lang/String;;
Asciz	(Lscala/collection/TraversableLike;Ljava/lang/String;Ljava/lang/String;Ljava/lang/String;)Ljava/lang/String;;
NameAndType	mkString:(Lscala/collection/TraversableLike;Ljava/lang/String;Ljava/lang/String;Ljava/lang/String;)Ljava/lang/String;
Method	scala/collection/TraversableLike$class.mkString:(Lscala/collection/TraversableLike;Ljava/lang/String;Ljava/lang/String;Ljava/lang/String;)Ljava/lang/String;
Asciz	start;
Asciz	end;
Asciz	toMap;
Asciz	(Lscala/Predef$$less$colon$less;)Lscala/collection/immutable/Map;;
Asciz	(Lscala/collection/TraversableLike;Lscala/Predef$$less$colon$less;)Lscala/collection/immutable/Map;;
NameAndType	toMap:(Lscala/collection/TraversableLike;Lscala/Predef$$less$colon$less;)Lscala/collection/immutable/Map;
Method	scala/collection/TraversableLike$class.toMap:(Lscala/collection/TraversableLike;Lscala/Predef$$less$colon$less;)Lscala/collection/immutable/Map;
Asciz	ev;
Asciz	Lscala/Predef$$less$colon$less;;
Asciz	toSet;
Asciz	()Lscala/collection/immutable/Set;;
Asciz	(Lscala/collection/TraversableLike;)Lscala/collection/immutable/Set;;
NameAndType	toSet:(Lscala/collection/TraversableLike;)Lscala/collection/immutable/Set;
Method	scala/collection/TraversableLike$class.toSet:(Lscala/collection/TraversableLike;)Lscala/collection/immutable/Set;
Asciz	toIndexedSeq;
Asciz	()Lscala/collection/mutable/IndexedSeq;;
Asciz	(Lscala/collection/TraversableLike;)Lscala/collection/mutable/IndexedSeq;;
NameAndType	toIndexedSeq:(Lscala/collection/TraversableLike;)Lscala/collection/mutable/IndexedSeq;
Method	scala/collection/TraversableLike$class.toIndexedSeq:(Lscala/collection/TraversableLike;)Lscala/collection/mutable/IndexedSeq;
Asciz	toSeq;
Asciz	()Lscala/collection/Seq;;
Asciz	(Lscala/collection/TraversableLike;)Lscala/collection/Seq;;
NameAndType	toSeq:(Lscala/collection/TraversableLike;)Lscala/collection/Seq;
Method	scala/collection/TraversableLike$class.toSeq:(Lscala/collection/TraversableLike;)Lscala/collection/Seq;
Asciz	toArray;
Asciz	(Lscala/reflect/ClassManifest;)Ljava/lang/Object;;
Asciz	(Lscala/collection/TraversableLike;Lscala/reflect/ClassManifest;)Ljava/lang/Object;;
NameAndType	toArray:(Lscala/collection/TraversableLike;Lscala/reflect/ClassManifest;)Ljava/lang/Object;
Method	scala/collection/TraversableLike$class.toArray:(Lscala/collection/TraversableLike;Lscala/reflect/ClassManifest;)Ljava/lang/Object;
Asciz	evidence$1;
Asciz	Lscala/reflect/ClassManifest;;
Asciz	copyToArray;
Asciz	(Ljava/lang/Object;)V;
Asciz	(Lscala/collection/TraversableLike;Ljava/lang/Object;)V;
NameAndType	copyToArray:(Lscala/collection/TraversableLike;Ljava/lang/Object;)V
Method	scala/collection/TraversableLike$class.copyToArray:(Lscala/collection/TraversableLike;Ljava/lang/Object;)V
Asciz	xs;
Asciz	(Ljava/lang/Object;I)V;
Asciz	(Lscala/collection/TraversableLike;Ljava/lang/Object;I)V;
NameAndType	copyToArray:(Lscala/collection/TraversableLike;Ljava/lang/Object;I)V
Method	scala/collection/TraversableLike$class.copyToArray:(Lscala/collection/TraversableLike;Ljava/lang/Object;I)V
Asciz	copyToBuffer;
Asciz	(Lscala/collection/mutable/Buffer;)V;
Asciz	(Lscala/collection/TraversableLike;Lscala/collection/mutable/Buffer;)V;
NameAndType	copyToBuffer:(Lscala/collection/TraversableLike;Lscala/collection/mutable/Buffer;)V
Method	scala/collection/TraversableLike$class.copyToBuffer:(Lscala/collection/TraversableLike;Lscala/collection/mutable/Buffer;)V
Asciz	dest;
Asciz	Lscala/collection/mutable/Buffer;;
Asciz	splitAt;
Asciz	(I)Lscala/Tuple2;;
Asciz	(Lscala/collection/TraversableLike;I)Lscala/Tuple2;;
NameAndType	splitAt:(Lscala/collection/TraversableLike;I)Lscala/Tuple2;
Method	scala/collection/TraversableLike$class.splitAt:(Lscala/collection/TraversableLike;I)Lscala/Tuple2;
Asciz	n;
Asciz	span;
Asciz	(Lscala/Function1;)Lscala/Tuple2;;
Asciz	(Lscala/collection/TraversableLike;Lscala/Function1;)Lscala/Tuple2;;
NameAndType	span:(Lscala/collection/TraversableLike;Lscala/Function1;)Lscala/Tuple2;
Method	scala/collection/TraversableLike$class.span:(Lscala/collection/TraversableLike;Lscala/Function1;)Lscala/Tuple2;
Asciz	dropWhile;
Asciz	(Lscala/collection/TraversableLike;Lscala/Function1;)Ljava/lang/Object;;
NameAndType	dropWhile:(Lscala/collection/TraversableLike;Lscala/Function1;)Ljava/lang/Object;
Method	scala/collection/TraversableLike$class.dropWhile:(Lscala/collection/TraversableLike;Lscala/Function1;)Ljava/lang/Object;
Asciz	drop;
Asciz	(I)Ljava/lang/Object;;
Asciz	(Lscala/collection/TraversableLike;I)Ljava/lang/Object;;
NameAndType	drop:(Lscala/collection/TraversableLike;I)Ljava/lang/Object;
Method	scala/collection/TraversableLike$class.drop:(Lscala/collection/TraversableLike;I)Ljava/lang/Object;
Asciz	init;
Asciz	(Lscala/collection/TraversableLike;)Ljava/lang/Object;;
NameAndType	init:(Lscala/collection/TraversableLike;)Ljava/lang/Object;
Method	scala/collection/TraversableLike$class.init:(Lscala/collection/TraversableLike;)Ljava/lang/Object;
Asciz	lastOption;
Asciz	()Lscala/Option;;
Asciz	(Lscala/collection/TraversableLike;)Lscala/Option;;
NameAndType	lastOption:(Lscala/collection/TraversableLike;)Lscala/Option;
Method	scala/collection/TraversableLike$class.lastOption:(Lscala/collection/TraversableLike;)Lscala/Option;
Asciz	last;
NameAndType	last:(Lscala/collection/TraversableLike;)Ljava/lang/Object;
Method	scala/collection/TraversableLike$class.last:(Lscala/collection/TraversableLike;)Ljava/lang/Object;
Asciz	tail;
NameAndType	tail:(Lscala/collection/TraversableLike;)Ljava/lang/Object;
Method	scala/collection/TraversableLike$class.tail:(Lscala/collection/TraversableLike;)Ljava/lang/Object;
Asciz	headOption;
NameAndType	headOption:(Lscala/collection/TraversableLike;)Lscala/Option;
Method	scala/collection/TraversableLike$class.headOption:(Lscala/collection/TraversableLike;)Lscala/Option;
Asciz	max;
Asciz	(Lscala/math/Ordering;)Ljava/lang/Object;;
Asciz	(Lscala/collection/TraversableLike;Lscala/math/Ordering;)Ljava/lang/Object;;
NameAndType	max:(Lscala/collection/TraversableLike;Lscala/math/Ordering;)Ljava/lang/Object;
Method	scala/collection/TraversableLike$class.max:(Lscala/collection/TraversableLike;Lscala/math/Ordering;)Ljava/lang/Object;
Asciz	cmp;
Asciz	Lscala/math/Ordering;;
Asciz	min;
NameAndType	min:(Lscala/collection/TraversableLike;Lscala/math/Ordering;)Ljava/lang/Object;
Method	scala/collection/TraversableLike$class.min:(Lscala/collection/TraversableLike;Lscala/math/Ordering;)Ljava/lang/Object;
Asciz	product;
Asciz	(Lscala/math/Numeric;)Ljava/lang/Object;;
Asciz	(Lscala/collection/TraversableLike;Lscala/math/Numeric;)Ljava/lang/Object;;
NameAndType	product:(Lscala/collection/TraversableLike;Lscala/math/Numeric;)Ljava/lang/Object;
Method	scala/collection/TraversableLike$class.product:(Lscala/collection/TraversableLike;Lscala/math/Numeric;)Ljava/lang/Object;
Asciz	num;
Asciz	Lscala/math/Numeric;;
Asciz	sum;
NameAndType	sum:(Lscala/collection/TraversableLike;Lscala/math/Numeric;)Ljava/lang/Object;
Method	scala/collection/TraversableLike$class.sum:(Lscala/collection/TraversableLike;Lscala/math/Numeric;)Ljava/lang/Object;
Asciz	reduceRightOption;
Asciz	(Lscala/Function2;)Lscala/Option;;
Asciz	(Lscala/collection/TraversableLike;Lscala/Function2;)Lscala/Option;;
NameAndType	reduceRightOption:(Lscala/collection/TraversableLike;Lscala/Function2;)Lscala/Option;
Method	scala/collection/TraversableLike$class.reduceRightOption:(Lscala/collection/TraversableLike;Lscala/Function2;)Lscala/Option;
Asciz	op;
Asciz	reduceLeftOption;
NameAndType	reduceLeftOption:(Lscala/collection/TraversableLike;Lscala/Function2;)Lscala/Option;
Method	scala/collection/TraversableLike$class.reduceLeftOption:(Lscala/collection/TraversableLike;Lscala/Function2;)Lscala/Option;
Asciz	reduceLeft;
Asciz	(Lscala/Function2;)Ljava/lang/Object;;
Asciz	(Lscala/collection/TraversableLike;Lscala/Function2;)Ljava/lang/Object;;
NameAndType	reduceLeft:(Lscala/collection/TraversableLike;Lscala/Function2;)Ljava/lang/Object;
Method	scala/collection/TraversableLike$class.reduceLeft:(Lscala/collection/TraversableLike;Lscala/Function2;)Ljava/lang/Object;
Asciz	$colon$bslash;
Asciz	(Ljava/lang/Object;Lscala/Function2;)Ljava/lang/Object;;
Asciz	(Lscala/collection/TraversableLike;Ljava/lang/Object;Lscala/Function2;)Ljava/lang/Object;;
NameAndType	$colon$bslash:(Lscala/collection/TraversableLike;Ljava/lang/Object;Lscala/Function2;)Ljava/lang/Object;
Method	scala/collection/TraversableLike$class.$colon$bslash:(Lscala/collection/TraversableLike;Ljava/lang/Object;Lscala/Function2;)Ljava/lang/Object;
Asciz	z;
Asciz	$div$colon;
NameAndType	$div$colon:(Lscala/collection/TraversableLike;Ljava/lang/Object;Lscala/Function2;)Ljava/lang/Object;
Method	scala/collection/TraversableLike$class.$div$colon:(Lscala/collection/TraversableLike;Ljava/lang/Object;Lscala/Function2;)Ljava/lang/Object;
Asciz	foldLeft;
NameAndType	foldLeft:(Lscala/collection/TraversableLike;Ljava/lang/Object;Lscala/Function2;)Ljava/lang/Object;
Method	scala/collection/TraversableLike$class.foldLeft:(Lscala/collection/TraversableLike;Ljava/lang/Object;Lscala/Function2;)Ljava/lang/Object;
Asciz	count;
Asciz	(Lscala/Function1;)I;
Asciz	(Lscala/collection/TraversableLike;Lscala/Function1;)I;
NameAndType	count:(Lscala/collection/TraversableLike;Lscala/Function1;)I
Method	scala/collection/TraversableLike$class.count:(Lscala/collection/TraversableLike;Lscala/Function1;)I
Asciz	groupBy;
Asciz	(Lscala/Function1;)Lscala/collection/Map;;
Asciz	(Lscala/collection/TraversableLike;Lscala/Function1;)Lscala/collection/Map;;
NameAndType	groupBy:(Lscala/collection/TraversableLike;Lscala/Function1;)Lscala/collection/Map;
Method	scala/collection/TraversableLike$class.groupBy:(Lscala/collection/TraversableLike;Lscala/Function1;)Lscala/collection/Map;
Asciz	partition;
NameAndType	partition:(Lscala/collection/TraversableLike;Lscala/Function1;)Lscala/Tuple2;
Method	scala/collection/TraversableLike$class.partition:(Lscala/collection/TraversableLike;Lscala/Function1;)Lscala/Tuple2;
Asciz	partialMap;
Asciz	(Lscala/PartialFunction;Lscala/collection/generic/CanBuildFrom;)Ljava/lang/Object;;
Asciz	(Lscala/collection/TraversableLike;Lscala/PartialFunction;Lscala/collection/generic/CanBuildFrom;)Ljava/lang/Object;;
NameAndType	partialMap:(Lscala/collection/TraversableLike;Lscala/PartialFunction;Lscala/collection/generic/CanBuildFrom;)Ljava/lang/Object;
Method	scala/collection/TraversableLike$class.partialMap:(Lscala/collection/TraversableLike;Lscala/PartialFunction;Lscala/collection/generic/CanBuildFrom;)Ljava/lang/Object;
Asciz	pf;
Asciz	Lscala/PartialFunction;;
Asciz	bf;
Asciz	Lscala/collection/generic/CanBuildFrom;;
Asciz	filterNot;
NameAndType	filterNot:(Lscala/collection/TraversableLike;Lscala/Function1;)Ljava/lang/Object;
Method	scala/collection/TraversableLike$class.filterNot:(Lscala/collection/TraversableLike;Lscala/Function1;)Ljava/lang/Object;
NameAndType	filter:(Lscala/collection/TraversableLike;Lscala/Function1;)Ljava/lang/Object;
Method	scala/collection/TraversableLike$class.filter:(Lscala/collection/TraversableLike;Lscala/Function1;)Ljava/lang/Object;
Asciz	flatMap;
Asciz	(Lscala/Function1;Lscala/collection/generic/CanBuildFrom;)Ljava/lang/Object;;
Asciz	(Lscala/collection/TraversableLike;Lscala/Function1;Lscala/collection/generic/CanBuildFrom;)Ljava/lang/Object;;
NameAndType	flatMap:(Lscala/collection/TraversableLike;Lscala/Function1;Lscala/collection/generic/CanBuildFrom;)Ljava/lang/Object;
Method	scala/collection/TraversableLike$class.flatMap:(Lscala/collection/TraversableLike;Lscala/Function1;Lscala/collection/generic/CanBuildFrom;)Ljava/lang/Object;
Asciz	map;
NameAndType	map:(Lscala/collection/TraversableLike;Lscala/Function1;Lscala/collection/generic/CanBuildFrom;)Ljava/lang/Object;
Method	scala/collection/TraversableLike$class.map:(Lscala/collection/TraversableLike;Lscala/Function1;Lscala/collection/generic/CanBuildFrom;)Ljava/lang/Object;
Asciz	$plus$plus;
Asciz	(Lscala/collection/Iterator;Lscala/collection/generic/CanBuildFrom;)Ljava/lang/Object;;
Asciz	(Lscala/collection/TraversableLike;Lscala/collection/Iterator;Lscala/collection/generic/CanBuildFrom;)Ljava/lang/Object;;
NameAndType	$plus$plus:(Lscala/collection/TraversableLike;Lscala/collection/Iterator;Lscala/collection/generic/CanBuildFrom;)Ljava/lang/Object;
Method	scala/collection/TraversableLike$class.$plus$plus:(Lscala/collection/TraversableLike;Lscala/collection/Iterator;Lscala/collection/generic/CanBuildFrom;)Ljava/lang/Object;
Asciz	that;
Asciz	(Lscala/collection/Traversable;Lscala/collection/generic/CanBuildFrom;)Ljava/lang/Object;;
Asciz	(Lscala/collection/TraversableLike;Lscala/collection/Traversable;Lscala/collection/generic/CanBuildFrom;)Ljava/lang/Object;;
NameAndType	$plus$plus:(Lscala/collection/TraversableLike;Lscala/collection/Traversable;Lscala/collection/generic/CanBuildFrom;)Ljava/lang/Object;
Method	scala/collection/TraversableLike$class.$plus$plus:(Lscala/collection/TraversableLike;Lscala/collection/Traversable;Lscala/collection/generic/CanBuildFrom;)Ljava/lang/Object;
Asciz	hasDefiniteSize;
Asciz	(Lscala/collection/TraversableLike;)Z;
NameAndType	hasDefiniteSize:(Lscala/collection/TraversableLike;)Z
Method	scala/collection/TraversableLike$class.hasDefiniteSize:(Lscala/collection/TraversableLike;)Z
Asciz	nonEmpty;
NameAndType	nonEmpty:(Lscala/collection/TraversableLike;)Z
Method	scala/collection/TraversableLike$class.nonEmpty:(Lscala/collection/TraversableLike;)Z
NameAndType	repr:(Lscala/collection/TraversableLike;)Ljava/lang/Object;
Method	scala/collection/TraversableLike$class.repr:(Lscala/collection/TraversableLike;)Ljava/lang/Object;
Asciz	transpose;
Asciz	(Lscala/Function1;)Lscala/collection/Traversable;;
Asciz	(Lscala/collection/generic/GenericTraversableTemplate;Lscala/Function1;)Lscala/collection/Traversable;;
NameAndType	transpose:(Lscala/collection/generic/GenericTraversableTemplate;Lscala/Function1;)Lscala/collection/Traversable;
Method	scala/collection/generic/GenericTraversableTemplate$class.transpose:(Lscala/collection/generic/GenericTraversableTemplate;Lscala/Function1;)Lscala/collection/Traversable;
Asciz	asTraversable;
Asciz	flatten;
NameAndType	flatten:(Lscala/collection/generic/GenericTraversableTemplate;Lscala/Function1;)Lscala/collection/Traversable;
Method	scala/collection/generic/GenericTraversableTemplate$class.flatten:(Lscala/collection/generic/GenericTraversableTemplate;Lscala/Function1;)Lscala/collection/Traversable;
Asciz	unzip;
Asciz	(Lscala/collection/generic/GenericTraversableTemplate;Lscala/Function1;)Lscala/Tuple2;;
NameAndType	unzip:(Lscala/collection/generic/GenericTraversableTemplate;Lscala/Function1;)Lscala/Tuple2;
Method	scala/collection/generic/GenericTraversableTemplate$class.unzip:(Lscala/collection/generic/GenericTraversableTemplate;Lscala/Function1;)Lscala/Tuple2;
Asciz	asPair;
Asciz	genericBuilder;
Asciz	()Lscala/collection/mutable/Builder;;
Asciz	(Lscala/collection/generic/GenericTraversableTemplate;)Lscala/collection/mutable/Builder;;
NameAndType	genericBuilder:(Lscala/collection/generic/GenericTraversableTemplate;)Lscala/collection/mutable/Builder;
Method	scala/collection/generic/GenericTraversableTemplate$class.genericBuilder:(Lscala/collection/generic/GenericTraversableTemplate;)Lscala/collection/mutable/Builder;
Asciz	projection;
Asciz	(Lscala/collection/IterableLike;)Lscala/collection/IterableView;;
NameAndType	projection:(Lscala/collection/IterableLike;)Lscala/collection/IterableView;
Method	scala/collection/IterableLike$class.projection:(Lscala/collection/IterableLike;)Lscala/collection/IterableView;
Asciz	firstOption;
Asciz	(Lscala/collection/IterableLike;)Lscala/Option;;
NameAndType	firstOption:(Lscala/collection/IterableLike;)Lscala/Option;
Method	scala/collection/IterableLike$class.firstOption:(Lscala/collection/IterableLike;)Lscala/Option;
Asciz	first;
Asciz	(Lscala/collection/IterableLike;)Ljava/lang/Object;;
NameAndType	first:(Lscala/collection/IterableLike;)Ljava/lang/Object;
Method	scala/collection/IterableLike$class.first:(Lscala/collection/IterableLike;)Ljava/lang/Object;
Asciz	(Lscala/collection/IterableLike;II)Lscala/collection/IterableView;;
NameAndType	view:(Lscala/collection/IterableLike;II)Lscala/collection/IterableView;
Method	scala/collection/IterableLike$class.view:(Lscala/collection/IterableLike;II)Lscala/collection/IterableView;
NameAndType	view:(Lscala/collection/IterableLike;)Lscala/collection/IterableView;
Method	scala/collection/IterableLike$class.view:(Lscala/collection/IterableLike;)Lscala/collection/IterableView;
Asciz	canEqual;
Asciz	(Lscala/collection/IterableLike;Ljava/lang/Object;)Z;
NameAndType	canEqual:(Lscala/collection/IterableLike;Ljava/lang/Object;)Z
Method	scala/collection/IterableLike$class.canEqual:(Lscala/collection/IterableLike;Ljava/lang/Object;)Z
Asciz	toStream;
Asciz	()Lscala/collection/immutable/Stream;;
Asciz	(Lscala/collection/IterableLike;)Lscala/collection/immutable/Stream;;
NameAndType	toStream:(Lscala/collection/IterableLike;)Lscala/collection/immutable/Stream;
Method	scala/collection/IterableLike$class.toStream:(Lscala/collection/IterableLike;)Lscala/collection/immutable/Stream;
Asciz	sameElements;
Asciz	(Lscala/collection/Iterable;)Z;
Asciz	(Lscala/collection/IterableLike;Lscala/collection/Iterable;)Z;
NameAndType	sameElements:(Lscala/collection/IterableLike;Lscala/collection/Iterable;)Z
Method	scala/collection/IterableLike$class.sameElements:(Lscala/collection/IterableLike;Lscala/collection/Iterable;)Z
Asciz	Lscala/collection/Iterable;;
Asciz	zipWithIndex;
Asciz	(Lscala/collection/generic/CanBuildFrom;)Ljava/lang/Object;;
Asciz	(Lscala/collection/IterableLike;Lscala/collection/generic/CanBuildFrom;)Ljava/lang/Object;;
NameAndType	zipWithIndex:(Lscala/collection/IterableLike;Lscala/collection/generic/CanBuildFrom;)Ljava/lang/Object;
Method	scala/collection/IterableLike$class.zipWithIndex:(Lscala/collection/IterableLike;Lscala/collection/generic/CanBuildFrom;)Ljava/lang/Object;
Asciz	zipAll;
Asciz	(Lscala/collection/Iterable;Ljava/lang/Object;Ljava/lang/Object;Lscala/collection/generic/CanBuildFrom;)Ljava/lang/Object;;
Asciz	(Lscala/collection/IterableLike;Lscala/collection/Iterable;Ljava/lang/Object;Ljava/lang/Object;Lscala/collection/generic/CanBuildFrom;)Ljava/lang/Object;;
NameAndType	zipAll:(Lscala/collection/IterableLike;Lscala/collection/Iterable;Ljava/lang/Object;Ljava/lang/Object;Lscala/collection/generic/CanBuildFrom;)Ljava/lang/Object;
Method	scala/collection/IterableLike$class.zipAll:(Lscala/collection/IterableLike;Lscala/collection/Iterable;Ljava/lang/Object;Ljava/lang/Object;Lscala/collection/generic/CanBuildFrom;)Ljava/lang/Object;
Asciz	thisElem;
Asciz	thatElem;
Asciz	zip;
Asciz	(Lscala/collection/Iterable;Lscala/collection/generic/CanBuildFrom;)Ljava/lang/Object;;
Asciz	(Lscala/collection/IterableLike;Lscala/collection/Iterable;Lscala/collection/generic/CanBuildFrom;)Ljava/lang/Object;;
NameAndType	zip:(Lscala/collection/IterableLike;Lscala/collection/Iterable;Lscala/collection/generic/CanBuildFrom;)Ljava/lang/Object;
Method	scala/collection/IterableLike$class.zip:(Lscala/collection/IterableLike;Lscala/collection/Iterable;Lscala/collection/generic/CanBuildFrom;)Ljava/lang/Object;
Asciz	(Ljava/lang/Object;II)V;
Asciz	(Lscala/collection/IterableLike;Ljava/lang/Object;II)V;
NameAndType	copyToArray:(Lscala/collection/IterableLike;Ljava/lang/Object;II)V
Method	scala/collection/IterableLike$class.copyToArray:(Lscala/collection/IterableLike;Ljava/lang/Object;II)V
Asciz	len;
Asciz	dropRight;
Asciz	(Lscala/collection/IterableLike;I)Ljava/lang/Object;;
NameAndType	dropRight:(Lscala/collection/IterableLike;I)Ljava/lang/Object;
Method	scala/collection/IterableLike$class.dropRight:(Lscala/collection/IterableLike;I)Ljava/lang/Object;
Asciz	takeRight;
NameAndType	takeRight:(Lscala/collection/IterableLike;I)Ljava/lang/Object;
Method	scala/collection/IterableLike$class.takeRight:(Lscala/collection/IterableLike;I)Ljava/lang/Object;
Asciz	takeWhile;
Asciz	(Lscala/collection/IterableLike;Lscala/Function1;)Ljava/lang/Object;;
NameAndType	takeWhile:(Lscala/collection/IterableLike;Lscala/Function1;)Ljava/lang/Object;
Method	scala/collection/IterableLike$class.takeWhile:(Lscala/collection/IterableLike;Lscala/Function1;)Ljava/lang/Object;
Asciz	slice;
Asciz	(II)Ljava/lang/Object;;
Asciz	(Lscala/collection/IterableLike;II)Ljava/lang/Object;;
NameAndType	slice:(Lscala/collection/IterableLike;II)Ljava/lang/Object;
Method	scala/collection/IterableLike$class.slice:(Lscala/collection/IterableLike;II)Ljava/lang/Object;
Asciz	take;
NameAndType	take:(Lscala/collection/IterableLike;I)Ljava/lang/Object;
Method	scala/collection/IterableLike$class.take:(Lscala/collection/IterableLike;I)Ljava/lang/Object;
Asciz	head;
NameAndType	head:(Lscala/collection/IterableLike;)Ljava/lang/Object;
Method	scala/collection/IterableLike$class.head:(Lscala/collection/IterableLike;)Ljava/lang/Object;
Asciz	toIterable;
Asciz	(Lscala/collection/IterableLike;)Lscala/collection/Iterable;;
NameAndType	toIterable:(Lscala/collection/IterableLike;)Lscala/collection/Iterable;
Method	scala/collection/IterableLike$class.toIterable:(Lscala/collection/IterableLike;)Lscala/collection/Iterable;
Asciz	reduceRight;
Asciz	(Lscala/collection/IterableLike;Lscala/Function2;)Ljava/lang/Object;;
NameAndType	reduceRight:(Lscala/collection/IterableLike;Lscala/Function2;)Ljava/lang/Object;
Method	scala/collection/IterableLike$class.reduceRight:(Lscala/collection/IterableLike;Lscala/Function2;)Ljava/lang/Object;
Asciz	foldRight;
Asciz	(Lscala/collection/IterableLike;Ljava/lang/Object;Lscala/Function2;)Ljava/lang/Object;;
NameAndType	foldRight:(Lscala/collection/IterableLike;Ljava/lang/Object;Lscala/Function2;)Ljava/lang/Object;
Method	scala/collection/IterableLike$class.foldRight:(Lscala/collection/IterableLike;Ljava/lang/Object;Lscala/Function2;)Ljava/lang/Object;
Asciz	find;
Asciz	(Lscala/Function1;)Lscala/Option;;
Asciz	(Lscala/collection/IterableLike;Lscala/Function1;)Lscala/Option;;
NameAndType	find:(Lscala/collection/IterableLike;Lscala/Function1;)Lscala/Option;
Method	scala/collection/IterableLike$class.find:(Lscala/collection/IterableLike;Lscala/Function1;)Lscala/Option;
Asciz	exists;
Asciz	(Lscala/Function1;)Z;
Asciz	(Lscala/collection/IterableLike;Lscala/Function1;)Z;
NameAndType	exists:(Lscala/collection/IterableLike;Lscala/Function1;)Z
Method	scala/collection/IterableLike$class.exists:(Lscala/collection/IterableLike;Lscala/Function1;)Z
Asciz	forall;
NameAndType	forall:(Lscala/collection/IterableLike;Lscala/Function1;)Z
Method	scala/collection/IterableLike$class.forall:(Lscala/collection/IterableLike;Lscala/Function1;)Z
Asciz	foreach;
Asciz	(Lscala/collection/IterableLike;Lscala/Function1;)V;
NameAndType	foreach:(Lscala/collection/IterableLike;Lscala/Function1;)V
Method	scala/collection/IterableLike$class.foreach:(Lscala/collection/IterableLike;Lscala/Function1;)V
Asciz	(Lscala/collection/IterableLike;Ljava/lang/Object;)Lscala/collection/Iterable;;
NameAndType	toCollection:(Lscala/collection/IterableLike;Ljava/lang/Object;)Lscala/collection/Iterable;
Method	scala/collection/IterableLike$class.toCollection:(Lscala/collection/IterableLike;Ljava/lang/Object;)Lscala/collection/Iterable;
NameAndType	thisCollection:(Lscala/collection/IterableLike;)Lscala/collection/Iterable;
Method	scala/collection/IterableLike$class.thisCollection:(Lscala/collection/IterableLike;)Lscala/collection/Iterable;
Asciz	companion;
Asciz	()Lscala/collection/generic/GenericCompanion;;
Asciz	(Lscala/collection/mutable/Iterable;)Lscala/collection/generic/GenericCompanion;;
NameAndType	companion:(Lscala/collection/mutable/Iterable;)Lscala/collection/generic/GenericCompanion;
Method	scala/collection/mutable/Iterable$class.companion:(Lscala/collection/mutable/Iterable;)Lscala/collection/generic/GenericCompanion;
Asciz	compose;
Asciz	(Lscala/Function1;Lscala/Function1;)Lscala/Function1;;
NameAndType	compose:(Lscala/Function1;Lscala/Function1;)Lscala/Function1;
Method	scala/Function1$class.compose:(Lscala/Function1;Lscala/Function1;)Lscala/Function1;
Asciz	lift;
Asciz	()Lscala/Function1;;
Asciz	(Lscala/PartialFunction;)Lscala/Function1;;
NameAndType	lift:(Lscala/PartialFunction;)Lscala/Function1;
Method	scala/PartialFunction$class.lift:(Lscala/PartialFunction;)Lscala/Function1;
Asciz	(Lscala/PartialFunction;Lscala/Function1;)Lscala/PartialFunction;;
NameAndType	andThen:(Lscala/PartialFunction;Lscala/Function1;)Lscala/PartialFunction;
Method	scala/PartialFunction$class.andThen:(Lscala/PartialFunction;Lscala/Function1;)Lscala/PartialFunction;
Asciz	k;
Asciz	orElse;
Asciz	(Lscala/PartialFunction;)Lscala/PartialFunction;;
Asciz	(Lscala/PartialFunction;Lscala/PartialFunction;)Lscala/PartialFunction;;
NameAndType	orElse:(Lscala/PartialFunction;Lscala/PartialFunction;)Lscala/PartialFunction;
Method	scala/PartialFunction$class.orElse:(Lscala/PartialFunction;Lscala/PartialFunction;)Lscala/PartialFunction;
Asciz	equals;
Asciz	(Lscala/collection/MapLike;Ljava/lang/Object;)Z;
NameAndType	equals:(Lscala/collection/MapLike;Ljava/lang/Object;)Z
Method	scala/collection/MapLike$class.equals:(Lscala/collection/MapLike;Ljava/lang/Object;)Z
Asciz	hashCode;
Asciz	(Lscala/collection/MapLike;)I;
NameAndType	hashCode:(Lscala/collection/MapLike;)I
Method	scala/collection/MapLike$class.hashCode:(Lscala/collection/MapLike;)I
Asciz	stringPrefix;
Asciz	(Lscala/collection/MapLike;)Ljava/lang/String;;
NameAndType	stringPrefix:(Lscala/collection/MapLike;)Ljava/lang/String;
Method	scala/collection/MapLike$class.stringPrefix:(Lscala/collection/MapLike;)Ljava/lang/String;
Asciz	(Lscala/collection/mutable/StringBuilder;Ljava/lang/String;Ljava/lang/String;Ljava/lang/String;)Lscala/collection/mutable/StringBuilder;;
Asciz	(Lscala/collection/MapLike;Lscala/collection/mutable/StringBuilder;Ljava/lang/String;Ljava/lang/String;Ljava/lang/String;)Lscala/collection/mutable/StringBuilder;;
NameAndType	addString:(Lscala/collection/MapLike;Lscala/collection/mutable/StringBuilder;Ljava/lang/String;Ljava/lang/String;Ljava/lang/String;)Lscala/collection/mutable/StringBuilder;
Method	scala/collection/MapLike$class.addString:(Lscala/collection/MapLike;Lscala/collection/mutable/StringBuilder;Ljava/lang/String;Ljava/lang/String;Ljava/lang/String;)Lscala/collection/mutable/StringBuilder;
Asciz	(Lscala/collection/Iterator;)Lscala/collection/Map;;
Asciz	(Lscala/collection/MapLike;Lscala/collection/Iterator;)Lscala/collection/Map;;
NameAndType	$plus$plus:(Lscala/collection/MapLike;Lscala/collection/Iterator;)Lscala/collection/Map;
Method	scala/collection/MapLike$class.$plus$plus:(Lscala/collection/MapLike;Lscala/collection/Iterator;)Lscala/collection/Map;
Asciz	(Lscala/collection/Traversable;)Lscala/collection/Map;;
Asciz	(Lscala/collection/MapLike;Lscala/collection/Traversable;)Lscala/collection/Map;;
NameAndType	$plus$plus:(Lscala/collection/MapLike;Lscala/collection/Traversable;)Lscala/collection/Map;
Method	scala/collection/MapLike$class.$plus$plus:(Lscala/collection/MapLike;Lscala/collection/Traversable;)Lscala/collection/Map;
Asciz	kvs;
Asciz	(Lscala/Tuple2;Lscala/Tuple2;Lscala/collection/Seq;)Lscala/collection/Map;;
Asciz	(Lscala/collection/MapLike;Lscala/Tuple2;Lscala/Tuple2;Lscala/collection/Seq;)Lscala/collection/Map;;
NameAndType	$plus:(Lscala/collection/MapLike;Lscala/Tuple2;Lscala/Tuple2;Lscala/collection/Seq;)Lscala/collection/Map;
Method	scala/collection/MapLike$class.$plus:(Lscala/collection/MapLike;Lscala/Tuple2;Lscala/Tuple2;Lscala/collection/Seq;)Lscala/collection/Map;
Asciz	kv1;
Asciz	kv2;
Asciz	mapElements;
Asciz	(Lscala/Function1;)Lscala/collection/DefaultMap;;
Asciz	(Lscala/collection/MapLike;Lscala/Function1;)Lscala/collection/DefaultMap;;
NameAndType	mapElements:(Lscala/collection/MapLike;Lscala/Function1;)Lscala/collection/DefaultMap;
Method	scala/collection/MapLike$class.mapElements:(Lscala/collection/MapLike;Lscala/Function1;)Lscala/collection/DefaultMap;
Asciz	mapValues;
NameAndType	mapValues:(Lscala/collection/MapLike;Lscala/Function1;)Lscala/collection/DefaultMap;
Method	scala/collection/MapLike$class.mapValues:(Lscala/collection/MapLike;Lscala/Function1;)Lscala/collection/DefaultMap;
Asciz	filterKeys;
NameAndType	filterKeys:(Lscala/collection/MapLike;Lscala/Function1;)Lscala/collection/DefaultMap;
Method	scala/collection/MapLike$class.filterKeys:(Lscala/collection/MapLike;Lscala/Function1;)Lscala/collection/DefaultMap;
Asciz	default;
Asciz	(Lscala/collection/MapLike;Ljava/lang/Object;)Ljava/lang/Object;;
NameAndType	default:(Lscala/collection/MapLike;Ljava/lang/Object;)Ljava/lang/Object;
Method	scala/collection/MapLike$class.default:(Lscala/collection/MapLike;Ljava/lang/Object;)Ljava/lang/Object;
Asciz	getOrElse;
Asciz	(Ljava/lang/Object;Lscala/Function0;)Ljava/lang/Object;;
Asciz	(Lscala/collection/MapLike;Ljava/lang/Object;Lscala/Function0;)Ljava/lang/Object;;
NameAndType	getOrElse:(Lscala/collection/MapLike;Ljava/lang/Object;Lscala/Function0;)Ljava/lang/Object;
Method	scala/collection/MapLike$class.getOrElse:(Lscala/collection/MapLike;Ljava/lang/Object;Lscala/Function0;)Ljava/lang/Object;
Asciz	Lscala/Function0;;
Asciz	scala$collection$mutable$Cloneable$$super$clone;
NameAndType	clone:()Ljava/lang/Object;
Method	java/lang/Object.clone:()Ljava/lang/Object;
Asciz	(Lscala/collection/mutable/MapLikeBase;Lscala/Tuple2;)Lscala/collection/mutable/Map;;
NameAndType	$plus:(Lscala/collection/mutable/MapLikeBase;Lscala/Tuple2;)Lscala/collection/mutable/Map;
Method	scala/collection/mutable/MapLikeBase$class.$plus:(Lscala/collection/mutable/MapLikeBase;Lscala/Tuple2;)Lscala/collection/mutable/Map;
Asciz	$plus$plus$eq;
Asciz	(Lscala/collection/Traversable;)Lscala/collection/generic/Growable;;
Asciz	(Lscala/collection/generic/Growable;Lscala/collection/Traversable;)Lscala/collection/generic/Growable;;
NameAndType	$plus$plus$eq:(Lscala/collection/generic/Growable;Lscala/collection/Traversable;)Lscala/collection/generic/Growable;
Method	scala/collection/generic/Growable$class.$plus$plus$eq:(Lscala/collection/generic/Growable;Lscala/collection/Traversable;)Lscala/collection/generic/Growable;
Asciz	(Lscala/collection/Iterator;)Lscala/collection/generic/Growable;;
Asciz	(Lscala/collection/generic/Growable;Lscala/collection/Iterator;)Lscala/collection/generic/Growable;;
NameAndType	$plus$plus$eq:(Lscala/collection/generic/Growable;Lscala/collection/Iterator;)Lscala/collection/generic/Growable;
Method	scala/collection/generic/Growable$class.$plus$plus$eq:(Lscala/collection/generic/Growable;Lscala/collection/Iterator;)Lscala/collection/generic/Growable;
Asciz	(Ljava/lang/Object;Ljava/lang/Object;Lscala/collection/Seq;)Lscala/collection/generic/Growable;;
Asciz	(Lscala/collection/generic/Growable;Ljava/lang/Object;Ljava/lang/Object;Lscala/collection/Seq;)Lscala/collection/generic/Growable;;
NameAndType	$plus$eq:(Lscala/collection/generic/Growable;Ljava/lang/Object;Ljava/lang/Object;Lscala/collection/Seq;)Lscala/collection/generic/Growable;
Method	scala/collection/generic/Growable$class.$plus$eq:(Lscala/collection/generic/Growable;Ljava/lang/Object;Ljava/lang/Object;Lscala/collection/Seq;)Lscala/collection/generic/Growable;
Asciz	mapResult;
Asciz	(Lscala/Function1;)Lscala/collection/mutable/Builder;;
Asciz	(Lscala/collection/mutable/Builder;Lscala/Function1;)Lscala/collection/mutable/Builder;;
NameAndType	mapResult:(Lscala/collection/mutable/Builder;Lscala/Function1;)Lscala/collection/mutable/Builder;
Method	scala/collection/mutable/Builder$class.mapResult:(Lscala/collection/mutable/Builder;Lscala/Function1;)Lscala/collection/mutable/Builder;
Asciz	sizeHint;
Asciz	(I)V;
Asciz	(Lscala/collection/mutable/Builder;I)V;
NameAndType	sizeHint:(Lscala/collection/mutable/Builder;I)V
Method	scala/collection/mutable/Builder$class.sizeHint:(Lscala/collection/mutable/Builder;I)V
Asciz	$minus$minus$eq;
Asciz	(Lscala/collection/Traversable;)Lscala/collection/generic/Shrinkable;;
Asciz	(Lscala/collection/generic/Shrinkable;Lscala/collection/Traversable;)Lscala/collection/generic/Shrinkable;;
NameAndType	$minus$minus$eq:(Lscala/collection/generic/Shrinkable;Lscala/collection/Traversable;)Lscala/collection/generic/Shrinkable;
Method	scala/collection/generic/Shrinkable$class.$minus$minus$eq:(Lscala/collection/generic/Shrinkable;Lscala/collection/Traversable;)Lscala/collection/generic/Shrinkable;
Asciz	(Lscala/collection/Iterator;)Lscala/collection/generic/Shrinkable;;
Asciz	(Lscala/collection/generic/Shrinkable;Lscala/collection/Iterator;)Lscala/collection/generic/Shrinkable;;
NameAndType	$minus$minus$eq:(Lscala/collection/generic/Shrinkable;Lscala/collection/Iterator;)Lscala/collection/generic/Shrinkable;
Method	scala/collection/generic/Shrinkable$class.$minus$minus$eq:(Lscala/collection/generic/Shrinkable;Lscala/collection/Iterator;)Lscala/collection/generic/Shrinkable;
Asciz	(Ljava/lang/Object;Ljava/lang/Object;Lscala/collection/Seq;)Lscala/collection/generic/Shrinkable;;
Asciz	(Lscala/collection/generic/Shrinkable;Ljava/lang/Object;Ljava/lang/Object;Lscala/collection/Seq;)Lscala/collection/generic/Shrinkable;;
NameAndType	$minus$eq:(Lscala/collection/generic/Shrinkable;Ljava/lang/Object;Ljava/lang/Object;Lscala/collection/Seq;)Lscala/collection/generic/Shrinkable;
Method	scala/collection/generic/Shrinkable$class.$minus$eq:(Lscala/collection/generic/Shrinkable;Ljava/lang/Object;Ljava/lang/Object;Lscala/collection/Seq;)Lscala/collection/generic/Shrinkable;
Asciz	(Lscala/collection/mutable/MapLike;Lscala/collection/Iterator;)Lscala/collection/mutable/Map;;
NameAndType	$minus$minus:(Lscala/collection/mutable/MapLike;Lscala/collection/Iterator;)Lscala/collection/mutable/Map;
Method	scala/collection/mutable/MapLike$class.$minus$minus:(Lscala/collection/mutable/MapLike;Lscala/collection/Iterator;)Lscala/collection/mutable/Map;
Asciz	(Lscala/collection/mutable/MapLike;Lscala/collection/Traversable;)Lscala/collection/mutable/Map;;
NameAndType	$minus$minus:(Lscala/collection/mutable/MapLike;Lscala/collection/Traversable;)Lscala/collection/mutable/Map;
Method	scala/collection/mutable/MapLike$class.$minus$minus:(Lscala/collection/mutable/MapLike;Lscala/collection/Traversable;)Lscala/collection/mutable/Map;
Asciz	(Lscala/collection/mutable/MapLike;Ljava/lang/Object;Ljava/lang/Object;Lscala/collection/Seq;)Lscala/collection/mutable/Map;;
NameAndType	$minus:(Lscala/collection/mutable/MapLike;Ljava/lang/Object;Ljava/lang/Object;Lscala/collection/Seq;)Lscala/collection/mutable/Map;
Method	scala/collection/mutable/MapLike$class.$minus:(Lscala/collection/mutable/MapLike;Ljava/lang/Object;Ljava/lang/Object;Lscala/collection/Seq;)Lscala/collection/mutable/Map;
Asciz	(Lscala/collection/mutable/MapLike;)Lscala/collection/mutable/Map;;
NameAndType	result:(Lscala/collection/mutable/MapLike;)Lscala/collection/mutable/Map;
Method	scala/collection/mutable/MapLike$class.result:(Lscala/collection/mutable/MapLike;)Lscala/collection/mutable/Map;
NameAndType	clone:(Lscala/collection/mutable/MapLike;)Lscala/collection/mutable/Map;
Method	scala/collection/mutable/MapLike$class.clone:(Lscala/collection/mutable/MapLike;)Lscala/collection/mutable/Map;
Asciz	getOrElseUpdate;
Asciz	(Lscala/collection/mutable/MapLike;Ljava/lang/Object;Lscala/Function0;)Ljava/lang/Object;;
NameAndType	getOrElseUpdate:(Lscala/collection/mutable/MapLike;Ljava/lang/Object;Lscala/Function0;)Ljava/lang/Object;
Method	scala/collection/mutable/MapLike$class.getOrElseUpdate:(Lscala/collection/mutable/MapLike;Ljava/lang/Object;Lscala/Function0;)Ljava/lang/Object;
Asciz	removeKey;
Asciz	(Lscala/collection/mutable/MapLike;Ljava/lang/Object;)Lscala/Option;;
NameAndType	removeKey:(Lscala/collection/mutable/MapLike;Ljava/lang/Object;)Lscala/Option;
Method	scala/collection/mutable/MapLike$class.removeKey:(Lscala/collection/mutable/MapLike;Ljava/lang/Object;)Lscala/Option;
Asciz	(Lscala/collection/mutable/MapLike;Ljava/lang/Object;)Lscala/collection/mutable/Map;;
NameAndType	$minus:(Lscala/collection/mutable/MapLike;Ljava/lang/Object;)Lscala/collection/mutable/Map;
Method	scala/collection/mutable/MapLike$class.$minus:(Lscala/collection/mutable/MapLike;Ljava/lang/Object;)Lscala/collection/mutable/Map;
Asciz	remove;
NameAndType	remove:(Lscala/collection/mutable/MapLike;Ljava/lang/Object;)Lscala/Option;
Method	scala/collection/mutable/MapLike$class.remove:(Lscala/collection/mutable/MapLike;Ljava/lang/Object;)Lscala/Option;
Asciz	(Lscala/collection/Iterator;)Lscala/collection/mutable/MapLike;;
Asciz	(Lscala/collection/mutable/MapLike;Lscala/collection/Iterator;)Lscala/collection/mutable/MapLike;;
NameAndType	$plus$plus:(Lscala/collection/mutable/MapLike;Lscala/collection/Iterator;)Lscala/collection/mutable/MapLike;
Method	scala/collection/mutable/MapLike$class.$plus$plus:(Lscala/collection/mutable/MapLike;Lscala/collection/Iterator;)Lscala/collection/mutable/MapLike;
Asciz	(Lscala/collection/Traversable;)Lscala/collection/mutable/MapLike;;
Asciz	(Lscala/collection/mutable/MapLike;Lscala/collection/Traversable;)Lscala/collection/mutable/MapLike;;
NameAndType	$plus$plus:(Lscala/collection/mutable/MapLike;Lscala/collection/Traversable;)Lscala/collection/mutable/MapLike;
Method	scala/collection/mutable/MapLike$class.$plus$plus:(Lscala/collection/mutable/MapLike;Lscala/collection/Traversable;)Lscala/collection/mutable/MapLike;
Asciz	(Lscala/Tuple2;Lscala/Tuple2;Lscala/collection/Seq;)Lscala/collection/mutable/MapLike;;
Asciz	(Lscala/collection/mutable/MapLike;Lscala/Tuple2;Lscala/Tuple2;Lscala/collection/Seq;)Lscala/collection/mutable/MapLike;;
NameAndType	$plus:(Lscala/collection/mutable/MapLike;Lscala/Tuple2;Lscala/Tuple2;Lscala/collection/Seq;)Lscala/collection/mutable/MapLike;
Method	scala/collection/mutable/MapLike$class.$plus:(Lscala/collection/mutable/MapLike;Lscala/Tuple2;Lscala/Tuple2;Lscala/collection/Seq;)Lscala/collection/mutable/MapLike;
Asciz	(Lscala/collection/mutable/MapLike;Lscala/Tuple2;)Lscala/collection/mutable/MapLike;;
NameAndType	$plus:(Lscala/collection/mutable/MapLike;Lscala/Tuple2;)Lscala/collection/mutable/MapLike;
Method	scala/collection/mutable/MapLike$class.$plus:(Lscala/collection/mutable/MapLike;Lscala/Tuple2;)Lscala/collection/mutable/MapLike;
Asciz	(Lscala/collection/mutable/MapLike;Ljava/lang/Object;Ljava/lang/Object;)Lscala/collection/mutable/Map;;
NameAndType	updated:(Lscala/collection/mutable/MapLike;Ljava/lang/Object;Ljava/lang/Object;)Lscala/collection/mutable/Map;
Method	scala/collection/mutable/MapLike$class.updated:(Lscala/collection/mutable/MapLike;Ljava/lang/Object;Ljava/lang/Object;)Lscala/collection/mutable/Map;
Asciz	put;
Asciz	(Ljava/lang/Object;Ljava/lang/Object;)Lscala/Option;;
Asciz	(Lscala/collection/mutable/MapLike;Ljava/lang/Object;Ljava/lang/Object;)Lscala/Option;;
NameAndType	put:(Lscala/collection/mutable/MapLike;Ljava/lang/Object;Ljava/lang/Object;)Lscala/Option;
Method	scala/collection/mutable/MapLike$class.put:(Lscala/collection/mutable/MapLike;Ljava/lang/Object;Ljava/lang/Object;)Lscala/Option;
Asciz	newBuilder;
Asciz	(Lscala/collection/mutable/MapLike;)Lscala/collection/mutable/Builder;;
NameAndType	newBuilder:(Lscala/collection/mutable/MapLike;)Lscala/collection/mutable/Builder;
Method	scala/collection/mutable/MapLike$class.newBuilder:(Lscala/collection/mutable/MapLike;)Lscala/collection/mutable/Builder;
Asciz	(Lscala/collection/mutable/Map;)Lscala/collection/mutable/Map;;
NameAndType	empty:(Lscala/collection/mutable/Map;)Lscala/collection/mutable/Map;
Method	scala/collection/mutable/Map$class.empty:(Lscala/collection/mutable/Map;)Lscala/collection/mutable/Map;
Asciz	<A:Ljava/lang/Object;B:Ljava/lang/Object;>Ljava/lang/Object;Lscala/collection/mutable/Map<TA;TB;>;Lscala/ScalaObject;;
Asciz	ScalaSig;
Asciz	InnerClasses;
Asciz	scala/Predef$$less$colon$less;
class	scala/Predef$$less$colon$less
Asciz	scala/Predef;
class	scala/Predef
Asciz	$less$colon$less;
Asciz	scala/collection/TraversableLike$WithFilter;
class	scala/collection/TraversableLike$WithFilter
Asciz	WithFilter;
Asciz	$anonfun$retain$1;
Asciz	scala/ScalaObject;
class	scala/ScalaObject
Asciz	java/io/Serializable;
class	java/io/Serializable

{
private scala.collection.immutable.Map imap;
  Signature: Lscala/collection/immutable/Map;
  Signature: length = 0x2
   00 05 

public scala.collection.mutable.ImmutableMapAdaptor(scala.collection.immutable.Map);
  Signature: (Lscala/collection/immutable/Map;)V
  Code:
   Stack=2, Locals=2, Args_size=2
	aload_0
	aload_1
	putfield	Field imap:Lscala/collection/immutable/Map;
	aload_0
	invokespecial	Method java/lang/Object."<init>":()V
	aload_0
	invokestatic	Method scala/collection/TraversableLike$class.$init$:(Lscala/collection/TraversableLike;)V
	aload_0
	invokestatic	Method scala/collection/generic/GenericTraversableTemplate$class.$init$:(Lscala/collection/generic/GenericTraversableTemplate;)V
	aload_0
	invokestatic	Method scala/collection/Traversable$class.$init$:(Lscala/collection/Traversable;)V
	aload_0
	invokestatic	Method scala/collection/mutable/Traversable$class.$init$:(Lscala/collection/mutable/Traversable;)V
	aload_0
	invokestatic	Method scala/collection/IterableLike$class.$init$:(Lscala/collection/IterableLike;)V
	aload_0
	invokestatic	Method scala/collection/Iterable$class.$init$:(Lscala/collection/Iterable;)V
	aload_0
	invokestatic	Method scala/collection/mutable/Iterable$class.$init$:(Lscala/collection/mutable/Iterable;)V
	aload_0
	invokestatic	Method scala/Function1$class.$init$:(Lscala/Function1;)V
	aload_0
	invokestatic	Method scala/PartialFunction$class.$init$:(Lscala/PartialFunction;)V
	aload_0
	invokestatic	Method scala/collection/generic/Subtractable$class.$init$:(Lscala/collection/generic/Subtractable;)V
	aload_0
	invokestatic	Method scala/collection/MapLike$class.$init$:(Lscala/collection/MapLike;)V
	aload_0
	invokestatic	Method scala/collection/Map$class.$init$:(Lscala/collection/Map;)V
	aload_0
	invokestatic	Method scala/collection/mutable/Cloneable$class.$init$:(Lscala/collection/mutable/Cloneable;)V
	aload_0
	invokestatic	Method scala/collection/mutable/MapLikeBase$class.$init$:(Lscala/collection/mutable/MapLikeBase;)V
	aload_0
	invokestatic	Method scala/collection/generic/Growable$class.$init$:(Lscala/collection/generic/Growable;)V
	aload_0
	invokestatic	Method scala/collection/mutable/Builder$class.$init$:(Lscala/collection/mutable/Builder;)V
	aload_0
	invokestatic	Method scala/collection/generic/Shrinkable$class.$init$:(Lscala/collection/generic/Shrinkable;)V
	aload_0
	invokestatic	Method scala/collection/mutable/MapLike$class.$init$:(Lscala/collection/mutable/MapLike;)V
	aload_0
	invokestatic	Method scala/collection/mutable/Map$class.$init$:(Lscala/collection/mutable/Map;)V
	return
  Labels:
  LocalVariableTable: 
   Start  Length  Slot  Name   Signature
   0      86      0    this       Lscala/collection/mutable/ImmutableMapAdaptor;
   0      86      1    imap       Lscala/collection/immutable/Map;

  Signature: length = 0x2
   00 77 

public scala.collection.mutable.MapLike $minus$eq(java.lang.Object);
  Signature: (Ljava/lang/Object;)Lscala/collection/mutable/MapLike;
  Code:
   Stack=2, Locals=2, Args_size=2
	aload_0
	aload_1
	invokevirtual	Method $minus$eq:(Ljava/lang/Object;)Lscala/collection/mutable/ImmutableMapAdaptor;
	areturn
  Labels:
  LocalVariableTable: 
   Start  Length  Slot  Name   Signature
   0      6      0    this       Lscala/collection/mutable/ImmutableMapAdaptor;
   0      6      1    key       Ljava/lang/Object;


public scala.collection.generic.Shrinkable $minus$eq(java.lang.Object);
  Signature: (Ljava/lang/Object;)Lscala/collection/generic/Shrinkable;
  Code:
   Stack=2, Locals=2, Args_size=2
	aload_0
	aload_1
	invokevirtual	Method $minus$eq:(Ljava/lang/Object;)Lscala/collection/mutable/ImmutableMapAdaptor;
	areturn
  Labels:
  LocalVariableTable: 
   Start  Length  Slot  Name   Signature
   0      6      0    this       Lscala/collection/mutable/ImmutableMapAdaptor;
   0      6      1    elem       Ljava/lang/Object;


public scala.collection.mutable.MapLike $plus$eq(scala.Tuple2);
  Signature: (Lscala/Tuple2;)Lscala/collection/mutable/MapLike;
  Code:
   Stack=2, Locals=2, Args_size=2
	aload_0
	aload_1
	invokevirtual	Method $plus$eq:(Lscala/Tuple2;)Lscala/collection/mutable/ImmutableMapAdaptor;
	areturn
  Labels:
  LocalVariableTable: 
   Start  Length  Slot  Name   Signature
   0      6      0    this       Lscala/collection/mutable/ImmutableMapAdaptor;
   0      6      1    kv       Lscala/Tuple2;


public scala.collection.mutable.Builder $plus$eq(java.lang.Object);
  Signature: (Ljava/lang/Object;)Lscala/collection/mutable/Builder;
  Code:
   Stack=2, Locals=2, Args_size=2
	aload_0
	aload_1
	checkcast	class scala/Tuple2
	invokevirtual	Method $plus$eq:(Lscala/Tuple2;)Lscala/collection/mutable/ImmutableMapAdaptor;
	areturn
  Labels:
  LocalVariableTable: 
   Start  Length  Slot  Name   Signature
   0      9      0    this       Lscala/collection/mutable/ImmutableMapAdaptor;
   0      9      1    elem       Ljava/lang/Object;


public scala.collection.generic.Growable $plus$eq(java.lang.Object);
  Signature: (Ljava/lang/Object;)Lscala/collection/generic/Growable;
  Code:
   Stack=2, Locals=2, Args_size=2
	aload_0
	aload_1
	checkcast	class scala/Tuple2
	invokevirtual	Method $plus$eq:(Lscala/Tuple2;)Lscala/collection/mutable/ImmutableMapAdaptor;
	areturn
  Labels:
  LocalVariableTable: 
   Start  Length  Slot  Name   Signature
   0      9      0    this       Lscala/collection/mutable/ImmutableMapAdaptor;
   0      9      1    elem       Ljava/lang/Object;


public scala.collection.mutable.MapLike transform(scala.Function2);
  Signature: (Lscala/Function2;)Lscala/collection/mutable/MapLike;
  Code:
   Stack=2, Locals=2, Args_size=2
	aload_0
	aload_1
	invokevirtual	Method transform:(Lscala/Function2;)Lscala/collection/mutable/ImmutableMapAdaptor;
	areturn
  Labels:
  LocalVariableTable: 
   Start  Length  Slot  Name   Signature
   0      6      0    this       Lscala/collection/mutable/ImmutableMapAdaptor;
   0      6      1    f       Lscala/Function2;


public scala.collection.mutable.MapLike retain(scala.Function2);
  Signature: (Lscala/Function2;)Lscala/collection/mutable/MapLike;
  Code:
   Stack=2, Locals=2, Args_size=2
	aload_0
	aload_1
	invokevirtual	Method retain:(Lscala/Function2;)Lscala/collection/mutable/ImmutableMapAdaptor;
	areturn
  Labels:
  LocalVariableTable: 
   Start  Length  Slot  Name   Signature
   0      6      0    this       Lscala/collection/mutable/ImmutableMapAdaptor;
   0      6      1    p       Lscala/Function2;


public scala.collection.Map empty();
  Signature: ()Lscala/collection/Map;
  Code:
   Stack=1, Locals=1, Args_size=1
	aload_0
	invokeinterface	InterfaceMethod scala/collection/mutable/Map.empty:()Lscala/collection/mutable/Map;
	areturn
  Labels:

public scala.collection.Map updated(java.lang.Object, java.lang.Object);
  Signature: (Ljava/lang/Object;Ljava/lang/Object;)Lscala/collection/Map;
  Code:
   Stack=3, Locals=3, Args_size=3
	aload_0
	aload_1
	aload_2
	invokeinterface	InterfaceMethod scala/collection/mutable/MapLike.updated:(Ljava/lang/Object;Ljava/lang/Object;)Lscala/collection/mutable/Map;
	areturn
  Labels:
  LocalVariableTable: 
   Start  Length  Slot  Name   Signature
   0      9      0    this       Lscala/collection/mutable/ImmutableMapAdaptor;
   0      9      1    key       Ljava/lang/Object;
   0      9      2    value       Ljava/lang/Object;


public scala.collection.Map $minus(java.lang.Object);
  Signature: (Ljava/lang/Object;)Lscala/collection/Map;
  Code:
   Stack=2, Locals=2, Args_size=2
	aload_0
	aload_1
	invokeinterface	InterfaceMethod scala/collection/mutable/MapLike.$minus:(Ljava/lang/Object;)Lscala/collection/mutable/Map;
	areturn
  Labels:
  LocalVariableTable: 
   Start  Length  Slot  Name   Signature
   0      8      0    this       Lscala/collection/mutable/ImmutableMapAdaptor;
   0      8      1    key       Ljava/lang/Object;


public scala.collection.generic.Subtractable $minus(java.lang.Object);
  Signature: (Ljava/lang/Object;)Lscala/collection/generic/Subtractable;
  Code:
   Stack=2, Locals=2, Args_size=2
	aload_0
	aload_1
	invokeinterface	InterfaceMethod scala/collection/mutable/MapLike.$minus:(Ljava/lang/Object;)Lscala/collection/mutable/Map;
	areturn
  Labels:
  LocalVariableTable: 
   Start  Length  Slot  Name   Signature
   0      8      0    this       Lscala/collection/mutable/ImmutableMapAdaptor;
   0      8      1    elem       Ljava/lang/Object;


public java.lang.Object clone();
  Signature: ()Ljava/lang/Object;
  Code:
   Stack=1, Locals=1, Args_size=1
	aload_0
	invokeinterface	InterfaceMethod scala/collection/mutable/MapLike.clone:()Lscala/collection/mutable/Map;
	areturn
  Labels:

public java.lang.Object result();
  Signature: ()Ljava/lang/Object;
  Code:
   Stack=1, Locals=1, Args_size=1
	aload_0
	invokeinterface	InterfaceMethod scala/collection/mutable/MapLike.result:()Lscala/collection/mutable/Map;
	areturn
  Labels:

public scala.collection.generic.Subtractable $minus(java.lang.Object, java.lang.Object, scala.collection.Seq);
  Signature: (Ljava/lang/Object;Ljava/lang/Object;Lscala/collection/Seq;)Lscala/collection/generic/Subtractable;
  Code:
   Stack=4, Locals=4, Args_size=4
	aload_0
	aload_1
	aload_2
	aload_3
	invokeinterface	InterfaceMethod scala/collection/mutable/MapLike.$minus:(Ljava/lang/Object;Ljava/lang/Object;Lscala/collection/Seq;)Lscala/collection/mutable/Map;
	areturn
  Labels:
  LocalVariableTable: 
   Start  Length  Slot  Name   Signature
   0      10      0    this       Lscala/collection/mutable/ImmutableMapAdaptor;
   0      10      1    elem1       Ljava/lang/Object;
   0      10      2    elem2       Ljava/lang/Object;
   0      10      3    elems       Lscala/collection/Seq;


public scala.collection.generic.Subtractable $minus$minus(scala.collection.Traversable);
  Signature: (Lscala/collection/Traversable;)Lscala/collection/generic/Subtractable;
  Code:
   Stack=2, Locals=2, Args_size=2
	aload_0
	aload_1
	invokeinterface	InterfaceMethod scala/collection/mutable/MapLike.$minus$minus:(Lscala/collection/Traversable;)Lscala/collection/mutable/Map;
	areturn
  Labels:
  LocalVariableTable: 
   Start  Length  Slot  Name   Signature
   0      8      0    this       Lscala/collection/mutable/ImmutableMapAdaptor;
   0      8      1    elems       Lscala/collection/Traversable;


public scala.collection.generic.Subtractable $minus$minus(scala.collection.Iterator);
  Signature: (Lscala/collection/Iterator;)Lscala/collection/generic/Subtractable;
  Code:
   Stack=2, Locals=2, Args_size=2
	aload_0
	aload_1
	invokeinterface	InterfaceMethod scala/collection/mutable/MapLike.$minus$minus:(Lscala/collection/Iterator;)Lscala/collection/mutable/Map;
	areturn
  Labels:
  LocalVariableTable: 
   Start  Length  Slot  Name   Signature
   0      8      0    this       Lscala/collection/mutable/ImmutableMapAdaptor;
   0      8      1    iter       Lscala/collection/Iterator;


public scala.collection.Map $plus(scala.Tuple2);
  Signature: (Lscala/Tuple2;)Lscala/collection/Map;
  Code:
   Stack=2, Locals=2, Args_size=2
	aload_0
	aload_1
	invokeinterface	InterfaceMethod scala/collection/mutable/MapLikeBase.$plus:(Lscala/Tuple2;)Lscala/collection/mutable/Map;
	areturn
  Labels:
  LocalVariableTable: 
   Start  Length  Slot  Name   Signature
   0      8      0    this       Lscala/collection/mutable/ImmutableMapAdaptor;
   0      8      1    kv       Lscala/Tuple2;


public scala.Function1 andThen(scala.Function1);
  Signature: (Lscala/Function1;)Lscala/Function1;
  Code:
   Stack=2, Locals=2, Args_size=2
	aload_0
	aload_1
	invokeinterface	InterfaceMethod scala/PartialFunction.andThen:(Lscala/Function1;)Lscala/PartialFunction;
	areturn
  Labels:
  LocalVariableTable: 
   Start  Length  Slot  Name   Signature
   0      8      0    this       Lscala/collection/mutable/ImmutableMapAdaptor;
   0      8      1    g       Lscala/Function1;


public scala.collection.Traversable thisCollection();
  Signature: ()Lscala/collection/Traversable;
  Code:
   Stack=1, Locals=1, Args_size=1
	aload_0
	invokeinterface	InterfaceMethod scala/collection/IterableLike.thisCollection:()Lscala/collection/Iterable;
	areturn
  Labels:

public scala.collection.Traversable toCollection(java.lang.Object);
  Signature: (Ljava/lang/Object;)Lscala/collection/Traversable;
  Code:
   Stack=2, Locals=2, Args_size=2
	aload_0
	aload_1
	invokeinterface	InterfaceMethod scala/collection/IterableLike.toCollection:(Ljava/lang/Object;)Lscala/collection/Iterable;
	areturn
  Labels:
  LocalVariableTable: 
   Start  Length  Slot  Name   Signature
   0      8      0    this       Lscala/collection/mutable/ImmutableMapAdaptor;
   0      8      1    repr       Ljava/lang/Object;


public scala.collection.TraversableView view();
  Signature: ()Lscala/collection/TraversableView;
  Code:
   Stack=1, Locals=1, Args_size=1
	aload_0
	invokeinterface	InterfaceMethod scala/collection/IterableLike.view:()Lscala/collection/IterableView;
	areturn
  Labels:

public scala.collection.TraversableView view(int, int);
[...]
  Signature: (Lscala/collection/Iterator;)Lscala/collection/Map;
  Code:
   Stack=2, Locals=2, Args_size=2
	aload_0
	aload_1
	invokestatic	Method scala/collection/MapLike$class.$plus$plus:(Lscala/collection/MapLike;Lscala/collection/Iterator;)Lscala/collection/Map;
	areturn
  Labels:
  LocalVariableTable: 
   Start  Length  Slot  Name   Signature
   0      6      0    this       Lscala/collection/mutable/ImmutableMapAdaptor;
   0      6      1    iter       Lscala/collection/Iterator;


public scala.collection.Map $plus$plus(scala.collection.Traversable);
  Signature: (Lscala/collection/Traversable;)Lscala/collection/Map;
  Code:
   Stack=2, Locals=2, Args_size=2
	aload_0
	aload_1
	invokestatic	Method scala/collection/MapLike$class.$plus$plus:(Lscala/collection/MapLike;Lscala/collection/Traversable;)Lscala/collection/Map;
	areturn
  Labels:
  LocalVariableTable: 
   Start  Length  Slot  Name   Signature
   0      6      0    this       Lscala/collection/mutable/ImmutableMapAdaptor;
   0      6      1    kvs       Lscala/collection/Traversable;


public scala.collection.Map $plus(scala.Tuple2, scala.Tuple2, scala.collection.Seq);
  Signature: (Lscala/Tuple2;Lscala/Tuple2;Lscala/collection/Seq;)Lscala/collection/Map;
  Code:
   Stack=4, Locals=4, Args_size=4
	aload_0
	aload_1
	aload_2
	aload_3
	invokestatic	Method scala/collection/MapLike$class.$plus:(Lscala/collection/MapLike;Lscala/Tuple2;Lscala/Tuple2;Lscala/collection/Seq;)Lscala/collection/Map;
	areturn
  Labels:
  LocalVariableTable: 
   Start  Length  Slot  Name   Signature
   0      8      0    this       Lscala/collection/mutable/ImmutableMapAdaptor;
   0      8      1    kv1       Lscala/Tuple2;
   0      8      2    kv2       Lscala/Tuple2;
   0      8      3    kvs       Lscala/collection/Seq;


public scala.collection.DefaultMap mapElements(scala.Function1);
  Signature: (Lscala/Function1;)Lscala/collection/DefaultMap;
  Code:
   Stack=2, Locals=2, Args_size=2
	aload_0
	aload_1
	invokestatic	Method scala/collection/MapLike$class.mapElements:(Lscala/collection/MapLike;Lscala/Function1;)Lscala/collection/DefaultMap;
	areturn
  Labels:
  LocalVariableTable: 
   Start  Length  Slot  Name   Signature
   0      6      0    this       Lscala/collection/mutable/ImmutableMapAdaptor;
   0      6      1    f       Lscala/Function1;

  Deprecated: true

public scala.collection.DefaultMap mapValues(scala.Function1);
  Signature: (Lscala/Function1;)Lscala/collection/DefaultMap;
  Code:
   Stack=2, Locals=2, Args_size=2
	aload_0
	aload_1
	invokestatic	Method scala/collection/MapLike$class.mapValues:(Lscala/collection/MapLike;Lscala/Function1;)Lscala/collection/DefaultMap;
	areturn
  Labels:
  LocalVariableTable: 
   Start  Length  Slot  Name   Signature
   0      6      0    this       Lscala/collection/mutable/ImmutableMapAdaptor;
   0      6      1    f       Lscala/Function1;


public scala.collection.DefaultMap filterKeys(scala.Function1);
  Signature: (Lscala/Function1;)Lscala/collection/DefaultMap;
  Code:
   Stack=2, Locals=2, Args_size=2
	aload_0
	aload_1
	invokestatic	Method scala/collection/MapLike$class.filterKeys:(Lscala/collection/MapLike;Lscala/Function1;)Lscala/collection/DefaultMap;
	areturn
  Labels:
  LocalVariableTable: 
   Start  Length  Slot  Name   Signature
   0      6      0    this       Lscala/collection/mutable/ImmutableMapAdaptor;
   0      6      1    p       Lscala/Function1;


public java.lang.Object default(java.lang.Object);
  Signature: (Ljava/lang/Object;)Ljava/lang/Object;
  Code:
   Stack=2, Locals=2, Args_size=2
	aload_0
	aload_1
	invokestatic	Method scala/collection/MapLike$class.default:(Lscala/collection/MapLike;Ljava/lang/Object;)Ljava/lang/Object;
	areturn
  Labels:
  LocalVariableTable: 
   Start  Length  Slot  Name   Signature
   0      6      0    this       Lscala/collection/mutable/ImmutableMapAdaptor;
   0      6      1    key       Ljava/lang/Object;


public java.lang.Object getOrElse(java.lang.Object, scala.Function0);
  Signature: (Ljava/lang/Object;Lscala/Function0;)Ljava/lang/Object;
  Code:
   Stack=3, Locals=3, Args_size=3
	aload_0
	aload_1
	aload_2
	invokestatic	Method scala/collection/MapLike$class.getOrElse:(Lscala/collection/MapLike;Ljava/lang/Object;Lscala/Function0;)Ljava/lang/Object;
	areturn
  Labels:
  LocalVariableTable: 
   Start  Length  Slot  Name   Signature
   0      7      0    this       Lscala/collection/mutable/ImmutableMapAdaptor;
   0      7      1    key       Ljava/lang/Object;
   0      7      2    default       Lscala/Function0;


public final java.lang.Object scala$collection$mutable$Cloneable$$super$clone();
  Signature: ()Ljava/lang/Object;
  Code:
   Stack=1, Locals=1, Args_size=1
	aload_0
	invokespecial	Method java/lang/Object.clone:()Ljava/lang/Object;
	areturn
  Labels:

public scala.collection.mutable.Map $plus(scala.Tuple2);
  Signature: (Lscala/Tuple2;)Lscala/collection/mutable/Map;
  Code:
   Stack=2, Locals=2, Args_size=2
	aload_0
	aload_1
	invokestatic	Method scala/collection/mutable/MapLikeBase$class.$plus:(Lscala/collection/mutable/MapLikeBase;Lscala/Tuple2;)Lscala/collection/mutable/Map;
	areturn
  Labels:
  LocalVariableTable: 
   Start  Length  Slot  Name   Signature
   0      6      0    this       Lscala/collection/mutable/ImmutableMapAdaptor;
   0      6      1    kv       Lscala/Tuple2;


public scala.collection.generic.Growable $plus$plus$eq(scala.collection.Traversable);
  Signature: (Lscala/collection/Traversable;)Lscala/collection/generic/Growable;
  Code:
   Stack=2, Locals=2, Args_size=2
	aload_0
	aload_1
	invokestatic	Method scala/collection/generic/Growable$class.$plus$plus$eq:(Lscala/collection/generic/Growable;Lscala/collection/Traversable;)Lscala/collection/generic/Growable;
	areturn
  Labels:
  LocalVariableTable: 
   Start  Length  Slot  Name   Signature
   0      6      0    this       Lscala/collection/mutable/ImmutableMapAdaptor;
   0      6      1    elems       Lscala/collection/Traversable;


public scala.collection.generic.Growable $plus$plus$eq(scala.collection.Iterator);
  Signature: (Lscala/collection/Iterator;)Lscala/collection/generic/Growable;
  Code:
   Stack=2, Locals=2, Args_size=2
	aload_0
	aload_1
	invokestatic	Method scala/collection/generic/Growable$class.$plus$plus$eq:(Lscala/collection/generic/Growable;Lscala/collection/Iterator;)Lscala/collection/generic/Growable;
	areturn
  Labels:
  LocalVariableTable: 
   Start  Length  Slot  Name   Signature
   0      6      0    this       Lscala/collection/mutable/ImmutableMapAdaptor;
   0      6      1    iter       Lscala/collection/Iterator;


public scala.collection.generic.Growable $plus$eq(java.lang.Object, java.lang.Object, scala.collection.Seq);
  Signature: (Ljava/lang/Object;Ljava/lang/Object;Lscala/collection/Seq;)Lscala/collection/generic/Growable;
  Code:
   Stack=4, Locals=4, Args_size=4
	aload_0
	aload_1
	aload_2
	aload_3
	invokestatic	Method scala/collection/generic/Growable$class.$plus$eq:(Lscala/collection/generic/Growable;Ljava/lang/Object;Ljava/lang/Object;Lscala/collection/Seq;)Lscala/collection/generic/Growable;
	areturn
  Labels:
  LocalVariableTable: 
   Start  Length  Slot  Name   Signature
   0      8      0    this       Lscala/collection/mutable/ImmutableMapAdaptor;
   0      8      1    elem1       Ljava/lang/Object;
   0      8      2    elem2       Ljava/lang/Object;
   0      8      3    elems       Lscala/collection/Seq;


public scala.collection.mutable.Builder mapResult(scala.Function1);
  Signature: (Lscala/Function1;)Lscala/collection/mutable/Builder;
  Code:
   Stack=2, Locals=2, Args_size=2
	aload_0
	aload_1
	invokestatic	Method scala/collection/mutable/Builder$class.mapResult:(Lscala/collection/mutable/Builder;Lscala/Function1;)Lscala/collection/mutable/Builder;
	areturn
  Labels:
  LocalVariableTable: 
   Start  Length  Slot  Name   Signature
   0      6      0    this       Lscala/collection/mutable/ImmutableMapAdaptor;
   0      6      1    f       Lscala/Function1;


public void sizeHint(int);
  Signature: (I)V
  Code:
   Stack=2, Locals=2, Args_size=2
	aload_0
	iload_1
	invokestatic	Method scala/collection/mutable/Builder$class.sizeHint:(Lscala/collection/mutable/Builder;I)V
	return
  Labels:
  LocalVariableTable: 
   Start  Length  Slot  Name   Signature
   0      6      0    this       Lscala/collection/mutable/ImmutableMapAdaptor;
   0      6      1    size       I


public scala.collection.generic.Shrinkable $minus$minus$eq(scala.collection.Traversable);
  Signature: (Lscala/collection/Traversable;)Lscala/collection/generic/Shrinkable;
  Code:
   Stack=2, Locals=2, Args_size=2
	aload_0
	aload_1
	invokestatic	Method scala/collection/generic/Shrinkable$class.$minus$minus$eq:(Lscala/collection/generic/Shrinkable;Lscala/collection/Traversable;)Lscala/collection/generic/Shrinkable;
	areturn
  Labels:
  LocalVariableTable: 
   Start  Length  Slot  Name   Signature
   0      6      0    this       Lscala/collection/mutable/ImmutableMapAdaptor;
   0      6      1    iter       Lscala/collection/Traversable;


public scala.collection.generic.Shrinkable $minus$minus$eq(scala.collection.Iterator);
  Signature: (Lscala/collection/Iterator;)Lscala/collection/generic/Shrinkable;
  Code:
   Stack=2, Locals=2, Args_size=2
	aload_0
	aload_1
	invokestatic	Method scala/collection/generic/Shrinkable$class.$minus$minus$eq:(Lscala/collection/generic/Shrinkable;Lscala/collection/Iterator;)Lscala/collection/generic/Shrinkable;
	areturn
  Labels:
  LocalVariableTable: 
   Start  Length  Slot  Name   Signature
   0      6      0    this       Lscala/collection/mutable/ImmutableMapAdaptor;
   0      6      1    iter       Lscala/collection/Iterator;


public scala.collection.generic.Shrinkable $minus$eq(java.lang.Object, java.lang.Object, scala.collection.Seq);
  Signature: (Ljava/lang/Object;Ljava/lang/Object;Lscala/collection/Seq;)Lscala/collection/generic/Shrinkable;
  Code:
   Stack=4, Locals=4, Args_size=4
	aload_0
	aload_1
	aload_2
	aload_3
	invokestatic	Method scala/collection/generic/Shrinkable$class.$minus$eq:(Lscala/collection/generic/Shrinkable;Ljava/lang/Object;Ljava/lang/Object;Lscala/collection/Seq;)Lscala/collection/generic/Shrinkable;
	areturn
  Labels:
  LocalVariableTable: 
   Start  Length  Slot  Name   Signature
   0      8      0    this       Lscala/collection/mutable/ImmutableMapAdaptor;
   0      8      1    elem1       Ljava/lang/Object;
   0      8      2    elem2       Ljava/lang/Object;
   0      8      3    elems       Lscala/collection/Seq;


public scala.collection.mutable.Map $minus$minus(scala.collection.Iterator);
  Signature: (Lscala/collection/Iterator;)Lscala/collection/mutable/Map;
  Code:
   Stack=2, Locals=2, Args_size=2
	aload_0
	aload_1
	invokestatic	Method scala/collection/mutable/MapLike$class.$minus$minus:(Lscala/collection/mutable/MapLike;Lscala/collection/Iterator;)Lscala/collection/mutable/Map;
	areturn
  Labels:
  LocalVariableTable: 
   Start  Length  Slot  Name   Signature
   0      6      0    this       Lscala/collection/mutable/ImmutableMapAdaptor;
   0      6      1    iter       Lscala/collection/Iterator;

  Deprecated: true

public scala.collection.mutable.Map $minus$minus(scala.collection.Traversable);
  Signature: (Lscala/collection/Traversable;)Lscala/collection/mutable/Map;
  Code:
   Stack=2, Locals=2, Args_size=2
	aload_0
	aload_1
	invokestatic	Method scala/collection/mutable/MapLike$class.$minus$minus:(Lscala/collection/mutable/MapLike;Lscala/collection/Traversable;)Lscala/collection/mutable/Map;
	areturn
  Labels:
  LocalVariableTable: 
   Start  Length  Slot  Name   Signature
   0      6      0    this       Lscala/collection/mutable/ImmutableMapAdaptor;
   0      6      1    iter       Lscala/collection/Traversable;

  Deprecated: true

public scala.collection.mutable.Map $minus(java.lang.Object, java.lang.Object, scala.collection.Seq);
  Signature: (Ljava/lang/Object;Ljava/lang/Object;Lscala/collection/Seq;)Lscala/collection/mutable/Map;
  Code:
   Stack=4, Locals=4, Args_size=4
	aload_0
	aload_1
	aload_2
	aload_3
	invokestatic	Method scala/collection/mutable/MapLike$class.$minus:(Lscala/collection/mutable/MapLike;Ljava/lang/Object;Ljava/lang/Object;Lscala/collection/Seq;)Lscala/collection/mutable/Map;
	areturn
  Labels:
  LocalVariableTable: 
   Start  Length  Slot  Name   Signature
   0      8      0    this       Lscala/collection/mutable/ImmutableMapAdaptor;
   0      8      1    elem1       Ljava/lang/Object;
   0      8      2    elem2       Ljava/lang/Object;
   0      8      3    elems       Lscala/collection/Seq;

  Deprecated: true

public scala.collection.mutable.Map result();
  Signature: ()Lscala/collection/mutable/Map;
  Code:
   Stack=1, Locals=1, Args_size=1
	aload_0
	invokestatic	Method scala/collection/mutable/MapLike$class.result:(Lscala/collection/mutable/MapLike;)Lscala/collection/mutable/Map;
	areturn
  Labels:

public scala.collection.mutable.Map clone();
  Signature: ()Lscala/collection/mutable/Map;
  Code:
   Stack=1, Locals=1, Args_size=1
	aload_0
	invokestatic	Method scala/collection/mutable/MapLike$class.clone:(Lscala/collection/mutable/MapLike;)Lscala/collection/mutable/Map;
	areturn
  Labels:

public java.lang.Object getOrElseUpdate(java.lang.Object, scala.Function0);
  Signature: (Ljava/lang/Object;Lscala/Function0;)Ljava/lang/Object;
  Code:
   Stack=3, Locals=3, Args_size=3
	aload_0
	aload_1
	aload_2
	invokestatic	Method scala/collection/mutable/MapLike$class.getOrElseUpdate:(Lscala/collection/mutable/MapLike;Ljava/lang/Object;Lscala/Function0;)Ljava/lang/Object;
	areturn
  Labels:
  LocalVariableTable: 
   Start  Length  Slot  Name   Signature
   0      7      0    this       Lscala/collection/mutable/ImmutableMapAdaptor;
   0      7      1    key       Ljava/lang/Object;
   0      7      2    op       Lscala/Function0;


public scala.Option removeKey(java.lang.Object);
  Signature: (Ljava/lang/Object;)Lscala/Option;
  Code:
   Stack=2, Locals=2, Args_size=2
	aload_0
	aload_1
	invokestatic	Method scala/collection/mutable/MapLike$class.removeKey:(Lscala/collection/mutable/MapLike;Ljava/lang/Object;)Lscala/Option;
	areturn
  Labels:
  LocalVariableTable: 
   Start  Length  Slot  Name   Signature
   0      6      0    this       Lscala/collection/mutable/ImmutableMapAdaptor;
   0      6      1    key       Ljava/lang/Object;

  Deprecated: true

public scala.collection.mutable.Map $minus(java.lang.Object);
  Signature: (Ljava/lang/Object;)Lscala/collection/mutable/Map;
  Code:
   Stack=2, Locals=2, Args_size=2
	aload_0
	aload_1
	invokestatic	Method scala/collection/mutable/MapLike$class.$minus:(Lscala/collection/mutable/MapLike;Ljava/lang/Object;)Lscala/collection/mutable/Map;
	areturn
  Labels:
  LocalVariableTable: 
   Start  Length  Slot  Name   Signature
   0      6      0    this       Lscala/collection/mutable/ImmutableMapAdaptor;
   0      6      1    key       Ljava/lang/Object;

  Deprecated: true

public scala.Option remove(java.lang.Object);
  Signature: (Ljava/lang/Object;)Lscala/Option;
  Code:
   Stack=2, Locals=2, Args_size=2
	aload_0
	aload_1
	invokestatic	Method scala/collection/mutable/MapLike$class.remove:(Lscala/collection/mutable/MapLike;Ljava/lang/Object;)Lscala/Option;
	areturn
  Labels:
  LocalVariableTable: 
   Start  Length  Slot  Name   Signature
   0      6      0    this       Lscala/collection/mutable/ImmutableMapAdaptor;
   0      6      1    key       Ljava/lang/Object;


public scala.collection.mutable.MapLike $plus$plus(scala.collection.Iterator);
  Signature: (Lscala/collection/Iterator;)Lscala/collection/mutable/MapLike;
  Code:
   Stack=2, Locals=2, Args_size=2
	aload_0
	aload_1
	invokestatic	Method scala/collection/mutable/MapLike$class.$plus$plus:(Lscala/collection/mutable/MapLike;Lscala/collection/Iterator;)Lscala/collection/mutable/MapLike;
	areturn
  Labels:
  LocalVariableTable: 
   Start  Length  Slot  Name   Signature
   0      6      0    this       Lscala/collection/mutable/ImmutableMapAdaptor;
   0      6      1    iter       Lscala/collection/Iterator;

  Deprecated: true

public scala.collection.mutable.MapLike $plus$plus(scala.collection.Traversable);
  Signature: (Lscala/collection/Traversable;)Lscala/collection/mutable/MapLike;
  Code:
   Stack=2, Locals=2, Args_size=2
	aload_0
	aload_1
	invokestatic	Method scala/collection/mutable/MapLike$class.$plus$plus:(Lscala/collection/mutable/MapLike;Lscala/collection/Traversable;)Lscala/collection/mutable/MapLike;
	areturn
  Labels:
  LocalVariableTable: 
   Start  Length  Slot  Name   Signature
   0      6      0    this       Lscala/collection/mutable/ImmutableMapAdaptor;
   0      6      1    iter       Lscala/collection/Traversable;

  Deprecated: true

public scala.collection.mutable.MapLike $plus(scala.Tuple2, scala.Tuple2, scala.collection.Seq);
  Signature: (Lscala/Tuple2;Lscala/Tuple2;Lscala/collection/Seq;)Lscala/collection/mutable/MapLike;
  Code:
   Stack=4, Locals=4, Args_size=4
	aload_0
	aload_1
	aload_2
	aload_3
	invokestatic	Method scala/collection/mutable/MapLike$class.$plus:(Lscala/collection/mutable/MapLike;Lscala/Tuple2;Lscala/Tuple2;Lscala/collection/Seq;)Lscala/collection/mutable/MapLike;
	areturn
  Labels:
  LocalVariableTable: 
   Start  Length  Slot  Name   Signature
   0      8      0    this       Lscala/collection/mutable/ImmutableMapAdaptor;
   0      8      1    elem1       Lscala/Tuple2;
   0      8      2    elem2       Lscala/Tuple2;
   0      8      3    elems       Lscala/collection/Seq;

  Deprecated: true

public scala.collection.mutable.MapLike $plus(scala.Tuple2);
  Signature: (Lscala/Tuple2;)Lscala/collection/mutable/MapLike;
  Code:
   Stack=2, Locals=2, Args_size=2
	aload_0
	aload_1
	invokestatic	Method scala/collection/mutable/MapLike$class.$plus:(Lscala/collection/mutable/MapLike;Lscala/Tuple2;)Lscala/collection/mutable/MapLike;
	areturn
  Labels:
  LocalVariableTable: 
   Start  Length  Slot  Name   Signature
   0      6      0    this       Lscala/collection/mutable/ImmutableMapAdaptor;
   0      6      1    kv       Lscala/Tuple2;

  Deprecated: true

public scala.collection.mutable.Map updated(java.lang.Object, java.lang.Object);
  Signature: (Ljava/lang/Object;Ljava/lang/Object;)Lscala/collection/mutable/Map;
  Code:
   Stack=3, Locals=3, Args_size=3
	aload_0
	aload_1
	aload_2
	invokestatic	Method scala/collection/mutable/MapLike$class.updated:(Lscala/collection/mutable/MapLike;Ljava/lang/Object;Ljava/lang/Object;)Lscala/collection/mutable/Map;
	areturn
  Labels:
  LocalVariableTable: 
   Start  Length  Slot  Name   Signature
   0      7      0    this       Lscala/collection/mutable/ImmutableMapAdaptor;
   0      7      1    key       Ljava/lang/Object;
   0      7      2    value       Ljava/lang/Object;


public scala.Option put(java.lang.Object, java.lang.Object);
  Signature: (Ljava/lang/Object;Ljava/lang/Object;)Lscala/Option;
  Code:
   Stack=3, Locals=3, Args_size=3
	aload_0
	aload_1
	aload_2
	invokestatic	Method scala/collection/mutable/MapLike$class.put:(Lscala/collection/mutable/MapLike;Ljava/lang/Object;Ljava/lang/Object;)Lscala/Option;
	areturn
  Labels:
  LocalVariableTable: 
   Start  Length  Slot  Name   Signature
   0      7      0    this       Lscala/collection/mutable/ImmutableMapAdaptor;
   0      7      1    key       Ljava/lang/Object;
   0      7      2    value       Ljava/lang/Object;


public scala.collection.mutable.Builder newBuilder();
  Signature: ()Lscala/collection/mutable/Builder;
  Code:
   Stack=1, Locals=1, Args_size=1
	aload_0
	invokestatic	Method scala/collection/mutable/MapLike$class.newBuilder:(Lscala/collection/mutable/MapLike;)Lscala/collection/mutable/Builder;
	areturn
  Labels:

public scala.collection.mutable.Map empty();
  Signature: ()Lscala/collection/mutable/Map;
  Code:
   Stack=1, Locals=1, Args_size=1
	aload_0
	invokestatic	Method scala/collection/mutable/Map$class.empty:(Lscala/collection/mutable/Map;)Lscala/collection/mutable/Map;
	areturn
  Labels:

}

