Compiled from "IndexedSeqLike.scala"
public interface scala.collection.mutable.IndexedSeqLike extends scala.collection.IndexedSeqLike,scala.ScalaObject
  SourceFile: "IndexedSeqLike.scala"
  Signature: length = 0x2
   00 11 
  ScalaSig: length = 0x20C
   05 00 54 06 07 01 02 FFFFFF90 FFFFFF80 FFFFFF81 00 09 02 0E 49 6E
   64 65 78 65 64 53 65 71 4C 69 6B 65 0A 02 03 04
   01 07 6D 75 74 61 62 6C 65 0A 02 05 06 01 0A 63
   6F 6C 6C 65 63 74 69 6F 6E 0A 01 07 01 05 73 63
   61 6C 61 03 00 15 03 0A 18 23 13 04 00 0B 13 25
   10 02 0C 11 0D 01 0D 0A 02 0E 0F 01 04 6C 61 6E
   67 0A 01 10 01 04 6A 61 76 61 09 02 12 0D 02 06
   4F 62 6A 65 63 74 10 04 14 15 16 22 0D 01 04 09
   02 01 04 10 02 17 18 0C 00 04 08 19 00 FFFFFF84 FFFFFF80 FFFFFF80
   FFFFFFC2 00 1A 02 01 41 11 02 1B 1F 10 02 1C 1D 0D 01
   06 09 02 1E 06 02 07 4E 6F 74 68 69 6E 67 10 02
   1C 20 09 02 21 06 02 03 41 6E 79 10 02 17 23 04
   08 24 00 FFFFFF84 FFFFFF80 FFFFFF84 FFFFFFC2 00 1A 02 04 52 65 70 72 10
   02 1C 26 09 02 27 06 02 0B 53 63 61 6C 61 4F 62
   6A 65 63 74 08 05 29 00 FFFFFF84 00 2A 01 06 24 69 6E
   69 74 24 14 01 2B 10 02 1C 2C 09 02 2D 06 02 04
   55 6E 69 74 08 06 2F 00 FFFFFFA0 FFFFFF84 28 30 01 0E 74 68
   69 73 43 6F 6C 6C 65 63 74 69 6F 6E 15 01 31 10
   03 32 33 16 0D 01 02 09 02 34 02 02 0A 49 6E 64
   65 78 65 64 53 65 71 08 06 36 00 FFFFFFA0 FFFFFF84 28 37 01
   0C 74 6F 43 6F 6C 6C 65 63 74 69 6F 6E 14 02 31
   38 08 05 39 35 FFFFFFC0 00 22 01 04 72 65 70 72 08 05
   3B 00 FFFFFF86 00 3C 01 06 75 70 64 61 74 65 14 03 2B
   3D 42 08 05 3E 3A FFFFFFC0 00 3F 01 03 69 64 78 10 02
   1C 40 09 02 41 06 02 03 49 6E 74 08 05 43 3A FFFFFFC0
   00 16 01 04 65 6C 65 6D 08 05 45 00 FFFFFF84 20 46 01
   04 76 69 65 77 15 01 47 12 03 48 0B 4A 06 08 49
   44 FFFFFF84 FFFFFF80 FFFFFF80 FFFFFF80 00 47 02 0C 3C 72 65 66 69 6E 65
   6D 65 6E 74 3E 10 04 32 4B 16 22 09 02 4C 02 02
   0E 49 6E 64 65 78 65 64 53 65 71 56 69 65 77 08
   05 45 00 FFFFFF84 20 4E 14 03 4A 4F 51 08 05 50 4D FFFFFFC0
   00 3F 01 04 66 72 6F 6D 08 05 52 4D FFFFFFC0 00 3F 01
   05 75 6E 74 69 6C 10 04 32 00 16 22 
  InnerClass: 
   public final $anon$1=class scala/collection/mutable/IndexedSeqLike$$anon$1 of class scala/collection/mutable/IndexedSeqLike
  minor version: 0
  major version: 49
  Constant pool:
Asciz	SourceFile;
Asciz	IndexedSeqLike.scala;
Asciz	view;
Asciz	(II)Lscala/collection/mutable/IndexedSeqView;;
Asciz	(II)Lscala/collection/mutable/IndexedSeqView<TA;TRepr;>;;
Asciz	Signature;
Asciz	()Lscala/collection/mutable/IndexedSeqView;;
Asciz	update;
Asciz	(ILjava/lang/Object;)V;
Asciz	(ITA;)V;
Asciz	toCollection;
Asciz	(Ljava/lang/Object;)Lscala/collection/mutable/IndexedSeq;;
Asciz	(TRepr;)Lscala/collection/mutable/IndexedSeq<TA;>;;
Asciz	thisCollection;
Asciz	()Lscala/collection/mutable/IndexedSeq;;
Asciz	()Lscala/collection/mutable/IndexedSeq<TA;>;;
Asciz	<A:Ljava/lang/Object;Repr:Ljava/lang/Object;>Ljava/lang/Object;Lscala/collection/IndexedSeqLike<TA;TRepr;>;Lscala/ScalaObject;;
Asciz	ScalaSig;
Asciz	InnerClasses;
Asciz	scala/collection/mutable/IndexedSeqLike$$anon$1;
class	scala/collection/mutable/IndexedSeqLike$$anon$1
Asciz	scala/collection/mutable/IndexedSeqLike;
class	scala/collection/mutable/IndexedSeqLike
Asciz	$anon$1;
Asciz	java/lang/Object;
class	java/lang/Object
Asciz	scala/collection/IndexedSeqLike;
class	scala/collection/IndexedSeqLike
Asciz	scala/ScalaObject;
class	scala/ScalaObject

{
public abstract scala.collection.mutable.IndexedSeqView view(int, int);
  Signature: (II)Lscala/collection/mutable/IndexedSeqView;
  Signature: length = 0x2
   00 05 

public abstract scala.collection.mutable.IndexedSeqView view();
  Signature: ()Lscala/collection/mutable/IndexedSeqView;

public abstract void update(int, java.lang.Object);
  Signature: (ILjava/lang/Object;)V
  Signature: length = 0x2
   00 0A 

public abstract scala.collection.mutable.IndexedSeq toCollection(java.lang.Object);
  Signature: (Ljava/lang/Object;)Lscala/collection/mutable/IndexedSeq;
  Signature: length = 0x2
   00 0D 

public abstract scala.collection.mutable.IndexedSeq thisCollection();
  Signature: ()Lscala/collection/mutable/IndexedSeq;
  Signature: length = 0x2
   00 10 

}

