Compiled from "Iterable.scala"
public interface scala.collection.mutable.Iterable extends scala.collection.mutable.Traversable,scala.collection.Iterable,scala.collection.generic.GenericTraversableTemplate,scala.collection.IterableLike,scala.ScalaObject
  SourceFile: "Iterable.scala"
  Signature: length = 0x2
   00 07 
  ScalaSig: length = 0x271
   05 00 61 06 07 01 02 FFFFFF90 FFFFFF80 FFFFFF81 00 09 02 08 49 74
   65 72 61 62 6C 65 0A 02 03 04 01 07 6D 75 74 61
   62 6C 65 0A 02 05 06 01 0A 63 6F 6C 6C 65 63 74
   69 6F 6E 0A 01 07 01 05 73 63 61 6C 61 03 00 15
   02 0A 19 13 07 00 0B 13 23 26 2D 31 10 02 0C 11
   0D 01 0D 0A 02 0E 0F 01 04 6C 61 6E 67 0A 01 10
   01 04 6A 61 76 61 09 02 12 0D 02 06 4F 62 6A 65
   63 74 10 03 14 15 17 0D 01 02 09 02 16 02 02 0B
   54 72 61 76 65 72 73 61 62 6C 65 10 02 18 19 0C
   00 04 08 1A 00 FFFFFF84 FFFFFF80 FFFFFF80 FFFFFFC2 00 1B 02 01 41 11 02
   1C 20 10 02 1D 1E 0D 01 06 09 02 1F 06 02 07 4E
   6F 74 68 69 6E 67 10 02 1D 21 09 02 22 06 02 03
   41 6E 79 10 03 24 25 17 0D 01 04 09 02 01 04 10
   04 27 2A 17 2C 0D 01 28 0A 02 29 04 01 07 67 65
   6E 65 72 69 63 09 02 2B 28 02 1A 47 65 6E 65 72
   69 63 54 72 61 76 65 72 73 61 62 6C 65 54 65 6D
   70 6C 61 74 65 10 02 14 00 10 04 24 2E 17 30 09
   02 2F 04 02 0C 49 74 65 72 61 62 6C 65 4C 69 6B
   65 10 03 14 00 17 10 02 1D 32 09 02 33 06 02 0B
   53 63 61 6C 61 4F 62 6A 65 63 74 08 05 35 00 FFFFFF84
   00 36 01 06 24 69 6E 69 74 24 14 01 37 10 02 1D
   38 09 02 39 06 02 04 55 6E 69 74 08 05 3B 00 FFFFFF84
   20 3C 01 09 63 6F 6D 70 61 6E 69 6F 6E 15 01 3D
   10 03 27 3E 2C 09 02 3F 28 02 10 47 65 6E 65 72
   69 63 43 6F 6D 70 61 6E 69 6F 6E 07 05 41 02 FFFFFF88
   02 42 01 08 49 74 65 72 61 62 6C 65 10 02 14 43
   06 08 01 02 FFFFFF84 FFFFFF80 FFFFFF80 FFFFFF88 02 44 13 03 43 45 31 10
   03 27 46 2C 09 02 47 28 02 12 54 72 61 76 65 72
   73 61 62 6C 65 46 61 63 74 6F 72 79 08 05 49 43
   FFFFFF84 00 4A 01 06 3C 69 6E 69 74 3E 14 01 42 08 05
   4C 43 FFFFFF84 01 4D 01 0C 63 61 6E 42 75 69 6C 64 46
   72 6F 6D 15 02 4E 56 10 05 27 4F 51 55 57 09 02
   50 28 02 0C 43 61 6E 42 75 69 6C 64 46 72 6F 6D
   10 02 52 53 0D 01 43 09 02 54 3E 02 04 43 6F 6C
   6C 10 02 18 56 04 08 1A 4B FFFFFF84 FFFFFF80 FFFFFF80 FFFFFFC2 00 1B 10
   03 14 00 55 08 05 59 43 FFFFFF84 00 5A 01 0A 6E 65 77
   42 75 69 6C 64 65 72 15 02 5B 5F 10 04 14 5C 5E
   60 09 02 5D 02 02 07 42 75 69 6C 64 65 72 10 02
   18 5F 04 08 1A 58 FFFFFF84 FFFFFF80 FFFFFF80 FFFFFFC2 00 1B 10 03 14 00
   5E 
  minor version: 0
  major version: 49
  Constant pool:
const #1 = Asciz	SourceFile;
const #2 = Asciz	Iterable.scala;
const #3 = Asciz	companion;
const #4 = Asciz	()Lscala/collection/generic/GenericCompanion;;
const #5 = Asciz	()Lscala/collection/generic/GenericCompanion<Lscala/collection/mutable/Iterable;>;;
const #6 = Asciz	Signature;
const #7 = Asciz	<A:Ljava/lang/Object;>Ljava/lang/Object;Lscala/collection/mutable/Traversable<TA;>;Lscala/collection/Iterable<TA;>;Lscala/collection/generic/GenericTraversableTemplate<TA;Lscala/collection/mutable/Iterable;>;Lscala/collection/IterableLike<TA;Lscala/collection/mutable/Iterable<TA;>;>;Lscala/ScalaObject;;
const #8 = Asciz	ScalaSig;
const #9 = Asciz	scala/collection/mutable/Iterable;
const #10 = class	#9;	//  scala/collection/mutable/Iterable
const #11 = Asciz	java/lang/Object;
const #12 = class	#11;	//  java/lang/Object
const #13 = Asciz	scala/collection/mutable/Traversable;
const #14 = class	#13;	//  scala/collection/mutable/Traversable
const #15 = Asciz	scala/collection/Iterable;
const #16 = class	#15;	//  scala/collection/Iterable
const #17 = Asciz	scala/collection/generic/GenericTraversableTemplate;
const #18 = class	#17;	//  scala/collection/generic/GenericTraversableTemplate
const #19 = Asciz	scala/collection/IterableLike;
const #20 = class	#19;	//  scala/collection/IterableLike
const #21 = Asciz	scala/ScalaObject;
const #22 = class	#21;	//  scala/ScalaObject

{
public abstract scala.collection.generic.GenericCompanion companion();
  Signature: length = 0x2
   00 05 

}

