Compiled from "Map.scala"
public interface scala.collection.mutable.Map extends scala.collection.mutable.Iterable,scala.collection.Map,scala.collection.generic.MutableMapTemplate,scala.Unhashable,scala.ScalaObject
  SourceFile: "Map.scala"
  Signature: length = 0x2
   00 07 
  ScalaSig: length = 0x27A
   05 00 67 06 07 01 02 FFFFFF90 FFFFFF80 FFFFFF81 00 09 02 03 4D 61
   70 0A 02 03 04 01 07 6D 75 74 61 62 6C 65 0A 02
   05 06 01 0A 63 6F 6C 6C 65 63 74 69 6F 6E 0A 01
   07 01 05 73 63 61 6C 61 03 00 15 03 0A 1D 27 13
   07 00 0B 13 29 2C 33 36 10 02 0C 11 0D 01 0D 0A
   02 0E 0F 01 04 6C 61 6E 67 0A 01 10 01 04 6A 61
   76 61 09 02 12 0D 02 06 4F 62 6A 65 63 74 10 03
   14 15 17 0D 01 02 09 02 16 02 02 08 49 74 65 72
   61 62 6C 65 10 04 18 19 1B 26 0D 01 06 09 02 1A
   06 02 06 54 75 70 6C 65 32 10 02 1C 1D 0C 00 04
   08 1E 00 FFFFFF84 FFFFFF80 FFFFFF80 FFFFFFC2 00 1F 02 01 41 11 02 20 23
   10 02 18 21 09 02 22 06 02 07 4E 6F 74 68 69 6E
   67 10 02 18 24 09 02 25 06 02 03 41 6E 79 10 02
   1C 27 04 08 28 00 FFFFFF84 FFFFFF80 FFFFFF80 FFFFFFC2 00 1F 02 01 42 10
   04 2A 2B 1B 26 0D 01 04 09 02 01 04 10 05 2D 30
   1B 26 32 0D 01 2E 0A 02 2F 04 01 07 67 65 6E 65
   72 69 63 09 02 31 2E 02 12 4D 75 74 61 62 6C 65
   4D 61 70 54 65 6D 70 6C 61 74 65 10 04 14 00 1B
   26 10 02 18 34 09 02 35 06 02 0A 55 6E 68 61 73
   68 61 62 6C 65 10 02 18 37 09 02 38 06 02 0B 53
   63 61 6C 61 4F 62 6A 65 63 74 08 05 3A 00 FFFFFF84 00
   3B 01 06 24 69 6E 69 74 24 14 01 3C 10 02 18 3D
   09 02 3E 06 02 04 55 6E 69 74 08 05 40 00 FFFFFF84 20
   41 01 05 65 6D 70 74 79 15 01 32 07 05 43 02 FFFFFF88
   02 44 01 03 4D 61 70 10 02 14 45 06 08 01 02 FFFFFF84
   FFFFFF80 FFFFFF80 FFFFFF88 02 46 13 03 45 47 36 10 03 2D 48 4A 09
   02 49 2E 02 11 4D 75 74 61 62 6C 65 4D 61 70 46
   61 63 74 6F 72 79 10 02 14 00 08 05 4C 45 FFFFFF84 00
   4D 01 06 3C 69 6E 69 74 3E 14 01 44 08 05 4F 45
   FFFFFF84 01 50 01 0E 62 75 69 6C 64 65 72 46 61 63 74
   6F 72 79 15 03 51 56 58 10 05 2D 52 54 59 5A 09
   02 53 2E 02 0E 42 75 69 6C 64 65 72 46 61 63 74
   6F 72 79 10 04 18 19 55 57 10 02 1C 56 04 08 1E
   4E FFFFFF84 FFFFFF80 FFFFFF80 FFFFFFC2 00 1F 10 02 1C 58 04 08 28 4E FFFFFF84
   FFFFFF80 FFFFFF80 FFFFFFC2 00 1F 10 04 14 00 55 57 10 02 5B 5C 0D
   01 45 09 02 5D 5E 02 04 43 6F 6C 6C 09 02 5F 2E
   02 0A 4D 61 70 46 61 63 74 6F 72 79 08 05 40 45
   FFFFFF84 00 61 15 03 62 64 66 10 04 14 00 63 65 10 02
   1C 64 04 08 1E 60 FFFFFF84 FFFFFF80 FFFFFF80 FFFFFFC2 00 1F 10 02 1C 66
   04 08 28 60 FFFFFF84 FFFFFF80 FFFFFF80 FFFFFFC2 00 1F 
  minor version: 0
  major version: 49
  Constant pool:
const #1 = Asciz	SourceFile;
const #2 = Asciz	Map.scala;
const #3 = Asciz	empty;
const #4 = Asciz	()Lscala/collection/mutable/Map;;
const #5 = Asciz	()Lscala/collection/mutable/Map<TA;TB;>;;
const #6 = Asciz	Signature;
const #7 = Asciz	<A:Ljava/lang/Object;B:Ljava/lang/Object;>Ljava/lang/Object;Lscala/collection/mutable/Iterable<Lscala/Tuple2<TA;TB;>;>;Lscala/collection/Map<TA;TB;>;Lscala/collection/generic/MutableMapTemplate<TA;TB;Lscala/collection/mutable/Map<TA;TB;>;>;Lscala/Unhashable;Lscala/ScalaObject;;
const #8 = Asciz	ScalaSig;
const #9 = Asciz	scala/collection/mutable/Map;
const #10 = class	#9;	//  scala/collection/mutable/Map
const #11 = Asciz	java/lang/Object;
const #12 = class	#11;	//  java/lang/Object
const #13 = Asciz	scala/collection/mutable/Iterable;
const #14 = class	#13;	//  scala/collection/mutable/Iterable
const #15 = Asciz	scala/collection/Map;
const #16 = class	#15;	//  scala/collection/Map
const #17 = Asciz	scala/collection/generic/MutableMapTemplate;
const #18 = class	#17;	//  scala/collection/generic/MutableMapTemplate
const #19 = Asciz	scala/Unhashable;
const #20 = class	#19;	//  scala/Unhashable
const #21 = Asciz	scala/ScalaObject;
const #22 = class	#21;	//  scala/ScalaObject

{
public abstract scala.collection.mutable.Map empty();
  Signature: length = 0x2
   00 05 

}

