Compiled from "MapLike.scala"
public interface scala.collection.mutable.MapLike extends scala.collection.MapLike,scala.collection.mutable.Builder,scala.collection.generic.Growable,scala.collection.generic.Shrinkable,scala.collection.mutable.Cloneable,scala.ScalaObject
  SourceFile: "MapLike.scala"
  Signature: length = 0x2
   00 3B 
  ScalaSig: length = 0x947
   05 00 FFFFFF82 02 06 07 01 02 FFFFFF90 FFFFFF80 FFFFFF81 00 09 02 07 4D
   61 70 4C 69 6B 65 0A 02 03 04 01 07 6D 75 74 61
   62 6C 65 0A 02 05 06 01 0A 63 6F 6C 6C 65 63 74
   69 6F 6E 0A 01 07 01 05 73 63 61 6C 61 03 00 15
   04 0A 18 23 26 13 08 00 0B 13 31 37 3D 40 43 10
   02 0C 11 0D 01 0D 0A 02 0E 0F 01 04 6C 61 6E 67
   0A 01 10 01 04 6A 61 76 61 09 02 12 0D 02 06 4F
   62 6A 65 63 74 10 05 14 15 16 22 25 0D 01 04 09
   02 01 04 10 02 17 18 0C 00 04 08 19 00 FFFFFF84 FFFFFF80 FFFFFF80
   FFFFFFC2 00 1A 02 01 41 11 02 1B 1F 10 02 1C 1D 0D 01
   06 09 02 1E 06 02 07 4E 6F 74 68 69 6E 67 10 02
   1C 20 09 02 21 06 02 03 41 6E 79 10 02 17 23 04
   08 24 00 FFFFFF84 FFFFFF80 FFFFFF80 FFFFFFC2 00 1A 02 01 42 10 02 17 26
   04 08 27 00 FFFFFF84 FFFFFF80 FFFFFF84 FFFFFFC2 00 28 02 04 54 68 69 73
   11 02 1B 29 12 03 2A 2C 2E 06 08 2B 00 FFFFFF84 FFFFFF80 FFFFFF80
   FFFFFF80 00 29 02 0C 3C 72 65 66 69 6E 65 6D 65 6E 74
   3E 10 05 2D 00 16 22 25 0D 01 02 10 04 2D 2F 16
   22 09 02 30 02 02 03 4D 61 70 10 04 2D 32 34 25
   09 02 33 02 02 07 42 75 69 6C 64 65 72 10 04 1C
   35 16 22 09 02 36 06 02 06 54 75 70 6C 65 32 10
   03 38 3B 34 0D 01 39 0A 02 3A 04 01 07 67 65 6E
   65 72 69 63 09 02 3C 39 02 08 47 72 6F 77 61 62
   6C 65 10 03 38 3E 16 09 02 3F 39 02 0A 53 68 72
   69 6E 6B 61 62 6C 65 10 03 2D 41 25 09 02 42 02
   02 09 43 6C 6F 6E 65 61 62 6C 65 10 02 1C 44 09
   02 45 06 02 0B 53 63 61 6C 61 4F 62 6A 65 63 74
   08 05 47 00 FFFFFF84 00 48 01 06 24 69 6E 69 74 24 14
   01 49 10 02 1C 4A 09 02 4B 06 02 04 55 6E 69 74
   08 06 4D 00 FFFFFFA0 FFFFFF84 28 4E 01 0A 6E 65 77 42 75 69
   6C 64 65 72 15 01 31 08 05 50 00 FFFFFF84 00 51 01 03
   70 75 74 14 03 52 55 57 10 03 1C 53 22 09 02 54
   06 02 06 4F 70 74 69 6F 6E 08 05 56 4F FFFFFFC0 00 16
   01 03 6B 65 79 08 05 58 4F FFFFFFC0 00 22 01 05 76 61
   6C 75 65 08 05 5A 00 FFFFFF84 00 5B 01 06 75 70 64 61
   74 65 14 03 49 5C 5D 08 05 56 59 FFFFFFC0 00 16 08 05
   58 59 FFFFFFC0 00 22 08 05 5F 00 FFFFFF86 00 60 01 08 24 70
   6C 75 73 24 65 71 14 02 61 62 0D 01 00 08 05 63
   5E FFFFFFC0 00 34 01 02 6B 76 08 05 65 00 FFFFFF84 20 66 01
   07 75 70 64 61 74 65 64 15 02 67 6A 14 03 68 6D
   6E 10 04 2D 2F 16 69 10 02 17 6A 04 08 6B 64 FFFFFF84
   FFFFFF80 FFFFFF80 FFFFFFC2 00 6C 02 02 42 31 11 02 22 1F 08 05 56
   64 FFFFFFC0 00 16 08 05 58 64 FFFFFFC0 00 69 08 05 70 00 FFFFFF84
   00 71 01 05 24 70 6C 75 73 15 02 72 75 14 02 73
   76 10 04 2D 2F 16 74 10 02 17 75 04 08 6B 6F FFFFFF84
   FFFFFF80 FFFFFF80 FFFFFFC2 00 6C 08 05 63 6F FFFFFFC0 00 77 10 04 1C 35
   16 74 28 07 6F 79 7F FFFFFF81 00 FFFFFF81 01 10 02 7A 7D 0D
   01 7B 0A 02 7C 06 01 0A 61 6E 6E 6F 74 61 74 69
   6F 6E 09 02 7E 7B 02 09 6D 69 67 72 61 74 69 6F
   6E 1D 01 02 1D 01 08 21 02 FFFFFF81 02 01 FFFFFF81 07 41 73
   20 6F 66 20 32 2E 38 2C 20 74 68 69 73 20 6F 70
   65 72 61 74 69 6F 6E 20 63 72 65 61 74 65 73 20
   61 20 6E 65 77 20 6D 61 70 2E 20 20 54 6F 20 61
   64 64 20 61 6E 20 65 6C 65 6D 65 6E 74 20 61 73
   20 61 0A 73 69 64 65 20 65 66 66 65 63 74 20 74
   6F 20 61 6E 20 65 78 69 73 74 69 6E 67 20 6D 61
   70 20 61 6E 64 20 72 65 74 75 72 6E 20 74 68 61
   74 20 6D 61 70 20 69 74 73 65 6C 66 2C 20 75 73
   65 20 2B 3D 2E 08 06 70 00 FFFFFF84 20 FFFFFF81 04 15 04 FFFFFF81
   05 FFFFFF81 08 14 08 FFFFFF81 06 FFFFFF81 09 FFFFFF81 0C FFFFFF81 0E 10 05 2D
   2F 16 FFFFFF81 07 10 03 17 FFFFFF81 08 04 09 6B FFFFFF81 03 FFFFFF84 FFFFFF80
   FFFFFF80 FFFFFFC2 00 6C 08 08 FFFFFF81 0A FFFFFF81 03 FFFFFFC0 00 FFFFFF81 0B 01 05
   65 6C 65 6D 31 10 05 1C 35 16 FFFFFF81 07 08 08 FFFFFF81 0D
   FFFFFF81 03 FFFFFFC0 00 FFFFFF81 0B 01 05 65 6C 65 6D 32 08 08 FFFFFF81
   0F FFFFFF81 03 FFFFFFC0 00 FFFFFF81 10 01 05 65 6C 65 6D 73 10 05
   1C FFFFFF81 11 FFFFFF81 0B 09 03 FFFFFF81 12 06 02 0A 3C 72 65 70
   65 61 74 65 64 3E 28 08 FFFFFF81 03 79 7F FFFFFF81 00 FFFFFF81 01
   08 07 FFFFFF81 15 00 FFFFFF84 20 FFFFFF81 16 01 0A 24 70 6C 75 73
   24 70 6C 75 73 15 04 FFFFFF81 17 FFFFFF81 1A 14 04 FFFFFF81 18 FFFFFF81
   1B 10 05 2D 2F 16 FFFFFF81 19 10 03 17 FFFFFF81 1A 04 09 6B
   FFFFFF81 14 FFFFFF84 FFFFFF80 FFFFFF80 FFFFFFC2 00 6C 08 08 FFFFFF81 1C FFFFFF81 14 FFFFFFC0 00
   FFFFFF81 1D 01 03 6B 76 73 10 05 14 FFFFFF81 1E FFFFFF81 20 09 03
   FFFFFF81 1F 04 02 0B 54 72 61 76 65 72 73 61 62 6C 65
   10 05 1C 35 16 FFFFFF81 19 28 08 FFFFFF81 14 79 7F FFFFFF81 00 FFFFFF81
   22 21 02 FFFFFF81 23 01 FFFFFF81 0A 41 73 20 6F 66 20 32 2E
   38 2C 20 74 68 69 73 20 6F 70 65 72 61 74 69 6F
   6E 20 63 72 65 61 74 65 73 20 61 20 6E 65 77 20
   6D 61 70 2E 20 20 54 6F 20 61 64 64 20 74 68 65
   20 65 6C 65 6D 65 6E 74 73 20 61 73 20 61 0A 73
   69 64 65 20 65 66 66 65 63 74 20 74 6F 20 61 6E
   20 65 78 69 73 74 69 6E 67 20 6D 61 70 20 61 6E
   64 20 72 65 74 75 72 6E 20 74 68 61 74 20 6D 61
   70 20 69 74 73 65 6C 66 2C 20 75 73 65 20 2B 2B
   3D 2E 08 07 FFFFFF81 15 00 FFFFFF84 20 FFFFFF81 25 15 04 FFFFFF81 26 FFFFFF81
   29 14 04 FFFFFF81 27 FFFFFF81 2A 10 05 2D 2F 16 FFFFFF81 28 10 03
   17 FFFFFF81 29 04 09 6B FFFFFF81 24 FFFFFF84 FFFFFF80 FFFFFF80 FFFFFFC2 00 6C 08 08
   FFFFFF81 2B FFFFFF81 24 FFFFFFC0 00 FFFFFF81 2C 01 04 69 74 65 72 10 05
   14 FFFFFF81 2D FFFFFF81 2F 09 03 FFFFFF81 2E 04 02 08 49 74 65 72
   61 74 6F 72 10 05 1C 35 16 FFFFFF81 28 28 08 FFFFFF81 24 79
   7F FFFFFF81 00 FFFFFF81 22 08 07 FFFFFF81 32 00 FFFFFF84 00 FFFFFF81 33 01 06
   72 65 6D 6F 76 65 14 03 52 FFFFFF81 34 08 06 56 FFFFFF81 31
   FFFFFFC0 00 16 08 07 FFFFFF81 36 00 FFFFFF86 00 FFFFFF81 37 01 09 24 6D
   69 6E 75 73 24 65 71 14 03 61 FFFFFF81 38 08 06 56 FFFFFF81
   35 FFFFFFC0 00 16 08 07 FFFFFF81 3A 00 FFFFFF84 20 FFFFFF81 3B 01 06 24
   6D 69 6E 75 73 14 03 25 FFFFFF81 3C 08 06 56 FFFFFF81 39 FFFFFFC0
   00 16 28 08 FFFFFF81 39 79 7F FFFFFF81 00 FFFFFF81 3E 21 02 FFFFFF81 3F
   01 FFFFFF81 0A 41 73 20 6F 66 20 32 2E 38 2C 20 74 68
   69 73 20 6F 70 65 72 61 74 69 6F 6E 20 63 72 65
   61 74 65 73 20 61 20 6E 65 77 20 6D 61 70 2E 20
   20 54 6F 20 72 65 6D 6F 76 65 20 61 6E 20 65 6C
   65 6D 65 6E 74 20 61 73 20 61 0A 73 69 64 65 20
   65 66 66 65 63 74 20 74 6F 20 61 6E 20 65 78 69
   73 74 69 6E 67 20 6D 61 70 20 61 6E 64 20 72 65
   74 75 72 6E 20 74 68 61 74 20 6D 61 70 20 69 74
   73 65 6C 66 2C 20 75 73 65 20 2D 3D 2E 08 07 FFFFFF81
   41 00 FFFFFF84 00 FFFFFF81 42 01 09 72 65 6D 6F 76 65 4B 65
   79 14 03 52 FFFFFF81 43 08 06 56 FFFFFF81 40 FFFFFFC0 00 16 28 06
   FFFFFF81 40 FFFFFF81 45 FFFFFF81 48 10 03 1C FFFFFF81 46 09 03 FFFFFF81 47 06
   02 0A 64 65 70 72 65 63 61 74 65 64 21 02 FFFFFF81 49
   01 14 55 73 65 20 60 72 65 6D 6F 76 65 27 20 69
   6E 73 74 65 61 64 08 06 FFFFFF81 4B 00 FFFFFF84 00 48 01 05
   63 6C 65 61 72 08 07 FFFFFF81 4D 00 FFFFFF84 00 FFFFFF81 4E 01 0F
   67 65 74 4F 72 45 6C 73 65 55 70 64 61 74 65 14
   05 22 FFFFFF81 4F FFFFFF81 50 08 06 56 FFFFFF81 4C FFFFFFC0 00 16 08 09
   FFFFFF81 51 FFFFFF81 4C FFFFFF84 FFFFFFC0 00 FFFFFF81 52 01 02 6F 70 10 04 1C
   FFFFFF81 53 22 09 03 FFFFFF81 54 06 02 08 3C 62 79 6E 61 6D
   65 3E 08 07 FFFFFF81 56 00 FFFFFF84 00 FFFFFF81 57 01 09 74 72 61
   6E 73 66 6F 72 6D 14 03 61 FFFFFF81 58 08 08 FFFFFF81 59 FFFFFF81
   55 FFFFFFC0 00 FFFFFF81 5A 01 01 66 10 06 1C FFFFFF81 5B 16 22 22
   09 03 FFFFFF81 5C 06 02 09 46 75 6E 63 74 69 6F 6E 32
   08 07 FFFFFF81 5E 00 FFFFFF84 00 FFFFFF81 5F 01 06 72 65 74 61 69
   6E 14 03 61 FFFFFF81 60 08 08 FFFFFF81 61 FFFFFF81 5D FFFFFFC0 00 FFFFFF81 62
   01 01 70 10 07 1C FFFFFF81 5B 16 22 FFFFFF81 63 10 03 1C FFFFFF81
   64 09 03 FFFFFF81 65 06 02 07 42 6F 6F 6C 65 61 6E 28
   06 FFFFFF81 5D FFFFFF81 45 FFFFFF81 67 21 02 FFFFFF81 68 01 36 63 61 6E
   6E 6F 74 20 62 65 20 74 79 70 65 20 69 6E 66 65
   72 72 65 64 20 62 65 63 61 75 73 65 20 6F 66 20
   72 65 74 61 69 6E 20 69 6E 20 49 74 65 72 61 62
   6C 65 2E 08 07 FFFFFF81 6A 00 FFFFFF84 20 FFFFFF81 6B 01 05 63 6C
   6F 6E 65 14 01 25 08 07 FFFFFF81 6D 00 FFFFFF84 00 FFFFFF81 6B 01
   06 72 65 73 75 6C 74 08 07 FFFFFF81 3A 00 FFFFFF84 20 FFFFFF81 6F
   14 07 25 FFFFFF81 70 FFFFFF81 71 FFFFFF81 72 08 07 FFFFFF81 0A FFFFFF81 6E FFFFFFC0
   00 16 08 07 FFFFFF81 0D FFFFFF81 6E FFFFFFC0 00 16 08 08 FFFFFF81 0F FFFFFF81
   6E FFFFFFC0 00 FFFFFF81 73 10 04 1C FFFFFF81 11 16 28 08 FFFFFF81 6E 79
   7F FFFFFF81 00 FFFFFF81 3E 08 07 FFFFFF81 76 00 FFFFFF84 20 FFFFFF81 77 01 0C
   24 6D 69 6E 75 73 24 6D 69 6E 75 73 14 03 25 FFFFFF81
   78 08 08 FFFFFF81 1C FFFFFF81 75 FFFFFFC0 00 FFFFFF81 79 10 04 14 FFFFFF81 1E
   16 28 08 FFFFFF81 75 79 7F FFFFFF81 00 FFFFFF81 7B 21 02 FFFFFF81 7C 01
   FFFFFF81 0D 41 73 20 6F 66 20 32 2E 38 2C 20 74 68 69
   73 20 6F 70 65 72 61 74 69 6F 6E 20 63 72 65 61
   74 65 73 20 61 20 6E 65 77 20 6D 61 70 2E 20 20
   54 6F 20 72 65 6D 6F 76 65 20 74 68 65 20 65 6C
   65 6D 65 6E 74 73 20 61 73 20 61 0A 73 69 64 65
   20 65 66 66 65 63 74 20 74 6F 20 61 6E 20 65 78
   69 73 74 69 6E 67 20 6D 61 70 20 61 6E 64 20 72
   65 74 75 72 6E 20 74 68 61 74 20 6D 61 70 20 69
   74 73 65 6C 66 2C 20 75 73 65 20 2D 2D 3D 2E 08
   07 FFFFFF81 76 00 FFFFFF84 20 FFFFFF81 7E 14 03 25 FFFFFF81 7F 08 08 FFFFFF81
   2B FFFFFF81 7D FFFFFFC0 00 FFFFFF82 00 10 04 14 FFFFFF81 2D 16 28 08 FFFFFF81
   7D 79 7F FFFFFF81 00 FFFFFF81 7B 
  InnerClass: 
   public final $anonfun$clear$1=class scala/collection/mutable/MapLike$$anonfun$clear$1 of class scala/collection/mutable/MapLike
   public final $anonfun$retain$2=class scala/collection/mutable/MapLike$$anonfun$retain$2 of class scala/collection/mutable/MapLike
   public final $anonfun$retain$1=class scala/collection/mutable/MapLike$$anonfun$retain$1 of class scala/collection/mutable/MapLike
   public final $anonfun$transform$1=class scala/collection/mutable/MapLike$$anonfun$transform$1 of class scala/collection/mutable/MapLike
  minor version: 0
  major version: 49
  Constant pool:
Asciz	SourceFile;
Asciz	MapLike.scala;
Asciz	newBuilder;
Asciz	()Lscala/collection/mutable/Builder;;
Asciz	()Lscala/collection/mutable/Builder<Lscala/Tuple2<TA;TB;>;TThis;>;;
Asciz	Signature;
Asciz	put;
Asciz	(Ljava/lang/Object;Ljava/lang/Object;)Lscala/Option;;
Asciz	(TA;TB;)Lscala/Option<TB;>;;
Asciz	update;
Asciz	(Ljava/lang/Object;Ljava/lang/Object;)V;
Asciz	(TA;TB;)V;
Asciz	$plus$eq;
Asciz	(Lscala/Tuple2;)Lscala/collection/mutable/MapLike;;
Asciz	(Lscala/Tuple2<TA;TB;>;)Lscala/collection/mutable/MapLike<TA;TB;TThis;>;;
Asciz	updated;
Asciz	(Ljava/lang/Object;Ljava/lang/Object;)Lscala/collection/mutable/Map;;
Asciz	<B1:Ljava/lang/Object;>(TA;TB1;)Lscala/collection/mutable/Map<TA;TB1;>;;
Asciz	$plus;
Asciz	(Lscala/Tuple2;)Lscala/collection/mutable/Map;;
Asciz	<B1:Ljava/lang/Object;>(Lscala/Tuple2<TA;TB1;>;)Lscala/collection/mutable/Map<TA;TB1;>;;
Asciz	(Lscala/Tuple2;Lscala/Tuple2;Lscala/collection/Seq;)Lscala/collection/mutable/Map;;
Asciz	<B1:Ljava/lang/Object;>(Lscala/Tuple2<TA;TB1;>;Lscala/Tuple2<TA;TB1;>;Lscala/collection/Seq<Lscala/Tuple2<TA;TB1;>;>;)Lscala/collection/mutable/Map<TA;TB1;>;;
Asciz	$plus$plus;
Asciz	(Lscala/collection/Traversable;)Lscala/collection/mutable/Map;;
Asciz	<B1:Ljava/lang/Object;>(Lscala/collection/Traversable<Lscala/Tuple2<TA;TB1;>;>;)Lscala/collection/mutable/Map<TA;TB1;>;;
Asciz	(Lscala/collection/Iterator;)Lscala/collection/mutable/Map;;
Asciz	<B1:Ljava/lang/Object;>(Lscala/collection/Iterator<Lscala/Tuple2<TA;TB1;>;>;)Lscala/collection/mutable/Map<TA;TB1;>;;
Asciz	remove;
Asciz	(Ljava/lang/Object;)Lscala/Option;;
Asciz	(TA;)Lscala/Option<TB;>;;
Asciz	$minus$eq;
Asciz	(Ljava/lang/Object;)Lscala/collection/mutable/MapLike;;
Asciz	(TA;)Lscala/collection/mutable/MapLike<TA;TB;TThis;>;;
Asciz	$minus;
Asciz	(Ljava/lang/Object;)Lscala/collection/mutable/Map;;
Asciz	(TA;)TThis;;
Asciz	removeKey;
Asciz	Deprecated;
Asciz	clear;
Asciz	()V;
Asciz	getOrElseUpdate;
Asciz	(Ljava/lang/Object;Lscala/Function0;)Ljava/lang/Object;;
Asciz	(TA;Lscala/Function0<TB;>;)TB;;
Asciz	transform;
Asciz	(Lscala/Function2;)Lscala/collection/mutable/MapLike;;
Asciz	(Lscala/Function2<TA;TB;TB;>;)Lscala/collection/mutable/MapLike<TA;TB;TThis;>;;
Asciz	retain;
Asciz	(Lscala/Function2<TA;TB;Ljava/lang/Boolean;>;)Lscala/collection/mutable/MapLike<TA;TB;TThis;>;;
Asciz	clone;
Asciz	()Lscala/collection/mutable/Map;;
Asciz	()TThis;;
Asciz	result;
Asciz	(Ljava/lang/Object;Ljava/lang/Object;Lscala/collection/Seq;)Lscala/collection/mutable/Map;;
Asciz	(TA;TA;Lscala/collection/Seq<TA;>;)TThis;;
Asciz	$minus$minus;
Asciz	(Lscala/collection/Traversable<TA;>;)TThis;;
Asciz	(Lscala/collection/Iterator<TA;>;)TThis;;
Asciz	<A:Ljava/lang/Object;B:Ljava/lang/Object;This::Lscala/collection/mutable/MapLike<TA;TB;TThis;>;:Lscala/collection/mutable/Map<TA;TB;>;>Ljava/lang/Object;Lscala/collection/MapLike<TA;TB;TThis;>;Lscala/collection/mutable/Builder<Lscala/Tuple2<TA;TB;>;TThis;>;Lscala/collection/generic/Growable<Lscala/Tuple2<TA;TB;>;>;Lscala/collection/generic/Shrinkable<TA;>;Lscala/collection/mutable/Cloneable<TThis;>;Lscala/ScalaObject;;
Asciz	ScalaSig;
Asciz	InnerClasses;
Asciz	scala/collection/mutable/MapLike$$anonfun$clear$1;
class	scala/collection/mutable/MapLike$$anonfun$clear$1
Asciz	scala/collection/mutable/MapLike;
class	scala/collection/mutable/MapLike
Asciz	$anonfun$clear$1;
Asciz	scala/collection/mutable/MapLike$$anonfun$retain$2;
class	scala/collection/mutable/MapLike$$anonfun$retain$2
Asciz	$anonfun$retain$2;
Asciz	scala/collection/mutable/MapLike$$anonfun$retain$1;
class	scala/collection/mutable/MapLike$$anonfun$retain$1
Asciz	$anonfun$retain$1;
Asciz	scala/collection/mutable/MapLike$$anonfun$transform$1;
class	scala/collection/mutable/MapLike$$anonfun$transform$1
Asciz	$anonfun$transform$1;
Asciz	java/lang/Object;
class	java/lang/Object
Asciz	scala/collection/MapLike;
class	scala/collection/MapLike
Asciz	scala/collection/mutable/Builder;
class	scala/collection/mutable/Builder
Asciz	scala/collection/generic/Growable;
class	scala/collection/generic/Growable
Asciz	scala/collection/generic/Shrinkable;
class	scala/collection/generic/Shrinkable
Asciz	scala/collection/mutable/Cloneable;
class	scala/collection/mutable/Cloneable
Asciz	scala/ScalaObject;
class	scala/ScalaObject

{
public abstract scala.collection.mutable.Builder newBuilder();
  Signature: ()Lscala/collection/mutable/Builder;
  Signature: length = 0x2
   00 05 

public abstract scala.Option put(java.lang.Object, java.lang.Object);
  Signature: (Ljava/lang/Object;Ljava/lang/Object;)Lscala/Option;
  Signature: length = 0x2
   00 09 

public abstract void update(java.lang.Object, java.lang.Object);
  Signature: (Ljava/lang/Object;Ljava/lang/Object;)V
  Signature: length = 0x2
   00 0C 

public abstract scala.collection.mutable.MapLike $plus$eq(scala.Tuple2);
  Signature: (Lscala/Tuple2;)Lscala/collection/mutable/MapLike;
  Signature: length = 0x2
   00 0F 

public abstract scala.collection.mutable.Map updated(java.lang.Object, java.lang.Object);
  Signature: (Ljava/lang/Object;Ljava/lang/Object;)Lscala/collection/mutable/Map;
  Signature: length = 0x2
   00 12 

public abstract scala.collection.mutable.Map $plus(scala.Tuple2);
  Signature: (Lscala/Tuple2;)Lscala/collection/mutable/Map;
  Signature: length = 0x2
   00 15 

public abstract scala.collection.mutable.Map $plus(scala.Tuple2, scala.Tuple2, scala.collection.Seq);
  Signature: (Lscala/Tuple2;Lscala/Tuple2;Lscala/collection/Seq;)Lscala/collection/mutable/Map;
  Signature: length = 0x2
   00 17 

public abstract scala.collection.mutable.Map $plus$plus(scala.collection.Traversable);
  Signature: (Lscala/collection/Traversable;)Lscala/collection/mutable/Map;
  Signature: length = 0x2
   00 1A 

public abstract scala.collection.mutable.Map $plus$plus(scala.collection.Iterator);
  Signature: (Lscala/collection/Iterator;)Lscala/collection/mutable/Map;
  Signature: length = 0x2
   00 1C 

public abstract scala.Option remove(java.lang.Object);
  Signature: (Ljava/lang/Object;)Lscala/Option;
  Signature: length = 0x2
   00 1F 

public abstract scala.collection.mutable.MapLike $minus$eq(java.lang.Object);
  Signature: (Ljava/lang/Object;)Lscala/collection/mutable/MapLike;
  Signature: length = 0x2
   00 22 

public abstract scala.collection.mutable.Map $minus(java.lang.Object);
  Signature: (Ljava/lang/Object;)Lscala/collection/mutable/Map;
  Signature: length = 0x2
   00 25 

public abstract scala.Option removeKey(java.lang.Object);
  Signature: (Ljava/lang/Object;)Lscala/Option;
  Signature: length = 0x2
   00 1F 
  Deprecated: true

public abstract void clear();
  Signature: ()V

public abstract java.lang.Object getOrElseUpdate(java.lang.Object, scala.Function0);
  Signature: (Ljava/lang/Object;Lscala/Function0;)Ljava/lang/Object;
  Signature: length = 0x2
   00 2C 

public abstract scala.collection.mutable.MapLike transform(scala.Function2);
  Signature: (Lscala/Function2;)Lscala/collection/mutable/MapLike;
  Signature: length = 0x2
   00 2F 

public abstract scala.collection.mutable.MapLike retain(scala.Function2);
  Signature: (Lscala/Function2;)Lscala/collection/mutable/MapLike;
  Signature: length = 0x2
   00 31 
  Deprecated: true

public abstract scala.collection.mutable.Map clone();
  Signature: ()Lscala/collection/mutable/Map;
  Signature: length = 0x2
   00 34 

public abstract scala.collection.mutable.Map result();
  Signature: ()Lscala/collection/mutable/Map;
  Signature: length = 0x2
   00 34 

public abstract scala.collection.mutable.Map $minus(java.lang.Object, java.lang.Object, scala.collection.Seq);
  Signature: (Ljava/lang/Object;Ljava/lang/Object;Lscala/collection/Seq;)Lscala/collection/mutable/Map;
  Signature: length = 0x2
   00 37 

public abstract scala.collection.mutable.Map $minus$minus(scala.collection.Traversable);
  Signature: (Lscala/collection/Traversable;)Lscala/collection/mutable/Map;
  Signature: length = 0x2
   00 39 

public abstract scala.collection.mutable.Map $minus$minus(scala.collection.Iterator);
  Signature: (Lscala/collection/Iterator;)Lscala/collection/mutable/Map;
  Signature: length = 0x2
   00 3A 

}

