Compiled from "ObservableMap.scala"
public interface scala.collection.mutable.ObservableMap extends scala.collection.mutable.Map,scala.collection.mutable.Publisher,scala.ScalaObject
  SourceFile: "ObservableMap.scala"
  Signature: length = 0x2
   00 0F 
  ScalaSig: length = 0x28A
   05 00 64 06 08 01 02 FFFFFF90 FFFFFF80 FFFFFF81 00 09 38 02 0D 4F
   62 73 65 72 76 61 62 6C 65 4D 61 70 0A 02 03 04
   01 07 6D 75 74 61 62 6C 65 0A 02 05 06 01 0A 63
   6F 6C 6C 65 63 74 69 6F 6E 0A 01 07 01 05 73 63
   61 6C 61 03 00 15 04 0A 19 24 39 13 05 00 0B 13
   26 3D 10 02 0C 11 0D 01 0D 0A 02 0E 0F 01 04 6C
   61 6E 67 0A 01 10 01 04 6A 61 76 61 09 02 12 0D
   02 06 4F 62 6A 65 63 74 10 04 14 15 17 23 0D 01
   02 09 02 16 02 02 03 4D 61 70 10 02 18 19 0C 00
   04 08 1A 00 FFFFFF84 FFFFFF80 FFFFFF80 FFFFFFC2 00 1B 02 01 41 11 02 1C
   20 10 02 1D 1E 0D 01 06 09 02 1F 06 02 07 4E 6F
   74 68 69 6E 67 10 02 1D 21 09 02 22 06 02 03 41
   6E 79 10 02 18 24 04 08 25 00 FFFFFF84 FFFFFF80 FFFFFF80 FFFFFFC2 00 1B
   02 01 42 10 04 14 27 29 38 09 02 28 02 02 09 50
   75 62 6C 69 73 68 65 72 12 03 2A 2C 35 06 08 2B
   02 FFFFFF84 FFFFFF80 FFFFFF80 FFFFFF80 00 29 02 0C 3C 72 65 66 69 6E 65
   6D 65 6E 74 3E 10 03 2D 30 32 0D 01 2E 0A 02 2F
   04 01 06 73 63 72 69 70 74 09 02 31 2E 02 07 4D
   65 73 73 61 67 65 10 04 1D 33 17 23 09 02 34 06
   02 06 54 75 70 6C 65 32 10 02 14 36 09 02 37 02
   02 08 55 6E 64 6F 61 62 6C 65 10 02 18 39 04 08
   3A 00 FFFFFF84 FFFFFF80 FFFFFF80 FFFFFFC2 00 3B 02 04 54 68 69 73 11 02
   1C 3C 10 05 14 00 17 23 38 10 02 1D 3E 09 02 3F
   06 02 0B 53 63 61 6C 61 4F 62 6A 65 63 74 08 05
   41 00 FFFFFF84 00 42 01 06 24 69 6E 69 74 24 14 01 43
   10 02 1D 44 09 02 45 06 02 04 55 6E 69 74 08 06
   47 00 FFFFFF90 FFFFFF84 00 48 01 08 24 70 6C 75 73 24 65 71
   14 02 49 4A 0D 01 00 08 05 4B 46 FFFFFFC0 00 32 01 02
   6B 76 08 06 4D 00 FFFFFF90 FFFFFF84 00 4E 01 09 24 6D 69 6E
   75 73 24 65 71 14 02 49 4F 08 05 50 4C FFFFFFC0 00 17
   01 03 6B 65 79 08 06 52 00 FFFFFF90 FFFFFF84 00 42 01 05 63
   6C 65 61 72 08 09 54 00 FFFFFF81 FFFFFF80 FFFFFF80 FFFFFF84 04 55 57 01
   0E 73 75 70 65 72 24 24 70 6C 75 73 24 65 71 14
   02 49 56 08 05 4B 53 FFFFFFC0 00 32 09 02 47 58 09 02
   59 5A 02 12 4D 75 74 61 62 6C 65 4D 61 70 54 65
   6D 70 6C 61 74 65 0A 02 5B 04 01 07 67 65 6E 65
   72 69 63 08 09 5D 00 FFFFFF81 FFFFFF80 FFFFFF80 FFFFFF84 04 5E 60 01 0F
   73 75 70 65 72 24 24 6D 69 6E 75 73 24 65 71 14
   02 49 5F 08 05 50 5C FFFFFFC0 00 17 09 02 4D 58 08 09
   62 00 FFFFFF81 FFFFFF80 FFFFFF80 FFFFFF84 04 42 63 01 0B 73 75 70 65 72
   24 63 6C 65 61 72 09 02 52 58 
  minor version: 0
  major version: 49
  Constant pool:
const #1 = Asciz	SourceFile;
const #2 = Asciz	ObservableMap.scala;
const #3 = Asciz	clear;
const #4 = Asciz	()V;
const #5 = Asciz	$minus$eq;
const #6 = Asciz	(Ljava/lang/Object;)Lscala/collection/mutable/ObservableMap;;
const #7 = Asciz	(TA;)TThis;;
const #8 = Asciz	Signature;
const #9 = Asciz	$plus$eq;
const #10 = Asciz	(Lscala/Tuple2;)Lscala/collection/mutable/ObservableMap;;
const #11 = Asciz	(Lscala/Tuple2<TA;TB;>;)TThis;;
const #12 = Asciz	scala$collection$mutable$ObservableMap$$super$clear;
const #13 = Asciz	scala$collection$mutable$ObservableMap$$super$$minus$eq;
const #14 = Asciz	scala$collection$mutable$ObservableMap$$super$$plus$eq;
const #15 = Asciz	<A:Ljava/lang/Object;B:Ljava/lang/Object;This::Lscala/collection/mutable/ObservableMap<TA;TB;TThis;>;>Ljava/lang/Object;Lscala/collection/mutable/Map<TA;TB;>;Lscala/collection/mutable/Publisher<Lscala/collection/script/Message<Lscala/Tuple2<TA;TB;>;>;TThis;>;Lscala/ScalaObject;;
const #16 = Asciz	ScalaSig;
const #17 = Asciz	scala/collection/mutable/ObservableMap;
const #18 = class	#17;	//  scala/collection/mutable/ObservableMap
const #19 = Asciz	java/lang/Object;
const #20 = class	#19;	//  java/lang/Object
const #21 = Asciz	scala/collection/mutable/Map;
const #22 = class	#21;	//  scala/collection/mutable/Map
const #23 = Asciz	scala/collection/mutable/Publisher;
const #24 = class	#23;	//  scala/collection/mutable/Publisher
const #25 = Asciz	scala/ScalaObject;
const #26 = class	#25;	//  scala/ScalaObject

{
public abstract void clear();

public abstract scala.collection.mutable.ObservableMap $minus$eq(java.lang.Object);
  Signature: length = 0x2
   00 07 

public abstract scala.collection.mutable.ObservableMap $plus$eq(scala.Tuple2);
  Signature: length = 0x2
   00 0B 

public abstract void scala$collection$mutable$ObservableMap$$super$clear();

public abstract scala.collection.mutable.ObservableMap scala$collection$mutable$ObservableMap$$super$$minus$eq(java.lang.Object);

public abstract scala.collection.mutable.ObservableMap scala$collection$mutable$ObservableMap$$super$$plus$eq(scala.Tuple2);

}

