Compiled from "StringBuilder.scala"
public final class scala.collection.mutable.StringBuilder extends java.lang.Object implements scala.collection.generic.Builder,scala.collection.mutable.Vector,scala.ScalaObject,java.io.Serializable
  SourceFile: "StringBuilder.scala"
  Signature: length = 0x2
   04 32 
  ScalaSig: length = 0x1090
   05 00 FFFFFF83 4F 06 08 01 02 FFFFFF84 FFFFFF80 FFFFFF80 FFFFFF80 02 09 02 0D
   53 74 72 69 6E 67 42 75 69 6C 64 65 72 0A 02 03
   04 01 07 6D 75 74 61 62 6C 65 0A 02 05 06 01 0A
   63 6F 6C 6C 65 63 74 69 6F 6E 0A 01 07 01 05 73
   63 61 6C 61 03 00 13 05 00 0A 12 23 27 10 02 0B
   10 0D 01 0C 0A 02 0D 0E 01 04 6C 61 6E 67 0A 01
   0F 01 04 6A 61 76 61 09 02 11 0C 02 06 4F 62 6A
   65 63 74 10 04 13 16 18 1C 0D 01 14 0A 02 15 04
   01 07 67 65 6E 65 72 69 63 09 02 17 14 02 07 42
   75 69 6C 64 65 72 10 02 19 1A 0D 01 06 09 02 1B
   06 02 04 43 68 61 72 10 02 1D 20 0E 02 19 1E 09
   02 1F 06 01 06 50 72 65 64 65 66 09 02 21 22 02
   06 53 74 72 69 6E 67 0A 02 1F 06 10 03 24 25 18
   0D 01 02 09 02 26 02 02 06 56 65 63 74 6F 72 10
   02 19 28 09 02 29 06 02 0B 53 63 61 6C 61 4F 62
   6A 65 63 74 08 08 2B 00 FFFFFF82 FFFFFF80 FFFFFFA0 FFFFFF80 04 2C 01 0C
   69 6E 69 74 43 61 70 61 63 69 74 79 10 02 19 2D
   09 02 2E 06 02 03 49 6E 74 08 08 30 00 FFFFFF82 FFFFFFC2 FFFFFF80
   FFFFFF84 04 31 01 09 69 6E 69 74 56 61 6C 75 65 15 01
   1C 08 08 33 00 FFFFFF82 FFFFFF80 FFFFFFA0 FFFFFF80 04 1C 01 0A 69 6E 69
   74 56 61 6C 75 65 20 08 05 35 00 FFFFFF84 00 36 01 06
   3C 69 6E 69 74 3E 14 03 37 38 39 10 02 24 00 08
   05 2B 34 FFFFFFC0 00 2C 08 05 30 34 FFFFFFC0 00 1C 08 07 3B
   00 FFFFFFC0 FFFFFF80 FFFFFF84 04 3C 01 05 61 72 72 61 79 15 01 3D
   10 03 19 3E 18 09 02 3F 06 02 05 41 72 72 61 79
   08 07 41 00 FFFFFFC0 FFFFFF80 FFFFFF84 04 42 01 09 61 72 72 61 79
   5F 24 65 71 14 02 43 46 10 02 19 44 09 02 45 06
   02 04 55 6E 69 74 08 07 47 40 FFFFFF81 FFFFFF80 FFFFFFC0 00 3D 01
   03 78 24 31 08 06 49 00 FFFFFFA0 FFFFFFA0 04 3D 01 06 61 72
   72 61 79 20 08 07 4B 00 FFFFFFC0 FFFFFF80 FFFFFF84 04 4C 01 05 63
   6F 75 6E 74 15 01 2C 08 07 4E 00 FFFFFFC0 FFFFFF80 FFFFFF84 04 4F
   01 09 63 6F 75 6E 74 5F 24 65 71 14 02 43 50 08
   07 47 4D FFFFFF81 FFFFFF80 FFFFFFC0 00 2C 08 06 52 00 FFFFFFA0 FFFFFFA0 04 2C
   01 06 63 6F 75 6E 74 20 08 05 35 00 FFFFFF84 00 54 14
   01 37 08 05 35 00 FFFFFF84 00 56 14 02 37 57 08 05 58
   55 FFFFFFC0 00 2C 01 08 63 61 70 61 63 69 74 79 08 05
   35 00 FFFFFF84 00 5A 14 02 37 5B 08 05 5C 59 FFFFFFC0 00 1C
   01 03 73 74 72 08 05 5E 00 FFFFFF84 00 3C 01 07 74 6F
   41 72 72 61 79 08 05 60 00 FFFFFF84 00 4C 01 06 6C 65
   6E 67 74 68 08 05 62 00 FFFFFF84 00 63 01 0A 6C 65 6E
   67 74 68 5F 24 65 71 14 02 43 64 08 05 65 61 FFFFFFC0
   00 2C 01 01 6E 08 05 67 00 FFFFFF84 00 68 01 05 63 6C
   65 61 72 14 01 43 08 05 6A 00 FFFFFF84 00 6B 01 09 73
   65 74 4C 65 6E 67 74 68 14 02 43 6C 08 05 65 69
   FFFFFFC0 00 2C 08 05 58 00 FFFFFF84 00 4C 08 05 6F 00 FFFFFF84 00
   70 01 0C 63 61 70 61 63 69 74 79 5F 24 65 71 14
   02 43 71 08 05 65 6E FFFFFFC0 00 2C 28 03 6E 73 76 10
   02 19 74 09 02 75 06 02 0A 64 65 70 72 65 63 61
   74 65 64 21 01 77 01 65 75 73 65 20 60 65 6E 73
   75 72 65 43 61 70 61 63 69 74 79 27 20 69 6E 73
   74 65 61 64 2E 20 41 6E 20 61 73 73 69 67 6E 6D
   65 6E 74 20 69 73 20 6D 69 73 6C 65 61 64 69 6E
   67 20 62 65 63 61 75 73 65 0A 69 74 20 63 61 6E
   20 6E 65 76 65 72 20 64 65 63 72 65 61 73 65 20
   74 68 65 20 63 61 70 61 63 69 74 79 2E 08 05 79
   00 FFFFFF84 00 7A 01 0E 65 6E 73 75 72 65 43 61 70 61
   63 69 74 79 14 02 43 7B 08 05 65 78 FFFFFFC0 00 2C 08
   05 7D 00 FFFFFF84 00 7E 01 06 63 68 61 72 41 74 14 02
   18 7F 08 06 FFFFFF81 00 7C FFFFFFC0 00 2C 01 05 69 6E 64 65
   78 08 07 FFFFFF81 02 00 FFFFFF84 00 FFFFFF81 03 01 05 61 70 70 6C
   79 14 03 18 FFFFFF81 04 08 07 FFFFFF81 05 FFFFFF81 01 FFFFFFC0 00 2C 01
   01 69 08 07 FFFFFF81 07 00 FFFFFF84 00 FFFFFF81 08 01 0C 64 65 6C
   65 74 65 43 68 61 72 41 74 14 03 37 FFFFFF81 09 08 07
   FFFFFF81 00 FFFFFF81 06 FFFFFFC0 00 2C 08 07 FFFFFF81 0B 00 FFFFFF84 00 FFFFFF81 0C
   01 09 73 65 74 43 68 61 72 41 74 14 05 43 FFFFFF81 0D
   FFFFFF81 0E 08 07 FFFFFF81 00 FFFFFF81 0A FFFFFFC0 00 2C 08 07 FFFFFF81 0F FFFFFF81
   0A FFFFFFC0 00 18 01 02 63 68 08 07 FFFFFF81 11 00 FFFFFF84 00 FFFFFF81
   12 01 06 75 70 64 61 74 65 14 05 43 FFFFFF81 13 FFFFFF81 14
   08 07 FFFFFF81 05 FFFFFF81 10 FFFFFFC0 00 2C 08 07 FFFFFF81 15 FFFFFF81 10 FFFFFFC0
   00 18 01 01 63 08 07 FFFFFF81 17 00 FFFFFF84 00 FFFFFF81 18 01 09
   73 75 62 73 74 72 69 6E 67 14 03 1C FFFFFF81 19 08 07
   FFFFFF81 1A FFFFFF81 16 FFFFFFC0 00 2C 01 05 73 74 61 72 74 08 07
   FFFFFF81 17 00 FFFFFF84 00 FFFFFF81 1C 14 05 1C FFFFFF81 1D FFFFFF81 1E 08 07
   FFFFFF81 1A FFFFFF81 1B FFFFFFC0 00 2C 08 07 FFFFFF81 1F FFFFFF81 1B FFFFFFC0 00 2C
   01 03 65 6E 64 08 07 FFFFFF81 21 00 FFFFFF84 00 FFFFFF81 22 01 0B
   73 75 62 53 65 71 75 65 6E 63 65 14 06 FFFFFF81 23 FFFFFF81
   26 FFFFFF81 27 10 03 0B FFFFFF81 24 09 03 FFFFFF81 25 0C 02 0C 43
   68 61 72 53 65 71 75 65 6E 63 65 08 07 FFFFFF81 1A FFFFFF81
   20 FFFFFFC0 00 2C 08 07 FFFFFF81 1F FFFFFF81 20 FFFFFFC0 00 2C 08 07 FFFFFF81
   29 00 FFFFFF84 00 FFFFFF81 2A 01 08 24 70 6C 75 73 24 65 71
   14 04 FFFFFF81 2B FFFFFF81 2C 0D 01 00 08 07 FFFFFF81 2D FFFFFF81 28 FFFFFFC0
   00 18 01 01 78 08 07 FFFFFF81 2F 00 FFFFFF84 00 FFFFFF81 30 01 05
   24 70 6C 75 73 14 04 FFFFFF81 2B FFFFFF81 31 08 07 FFFFFF81 2D FFFFFF81
   2E FFFFFFC0 00 18 08 07 FFFFFF81 33 00 FFFFFF84 00 FFFFFF81 34 01 06 61
   70 70 65 6E 64 14 03 37 FFFFFF81 35 08 08 FFFFFF81 2D FFFFFF81 32
   FFFFFFC0 00 FFFFFF81 36 10 03 19 FFFFFF81 37 09 03 FFFFFF81 38 06 02 03
   41 6E 79 08 07 FFFFFF81 33 00 FFFFFF84 00 FFFFFF81 3A 14 03 37 FFFFFF81
   3B 08 07 FFFFFF81 3C FFFFFF81 39 FFFFFFC0 00 1C 01 01 73 08 07 FFFFFF81
   33 00 FFFFFF84 00 FFFFFF81 3E 14 03 37 FFFFFF81 3F 08 07 FFFFFF81 40 FFFFFF81
   3D FFFFFFC0 00 37 01 02 73 62 08 07 FFFFFF81 42 00 FFFFFF84 00 FFFFFF81
   43 01 09 61 70 70 65 6E 64 41 6C 6C 14 03 37 FFFFFF81
   44 08 08 FFFFFF81 2D FFFFFF81 41 FFFFFFC0 00 FFFFFF81 45 10 05 FFFFFF81 46 FFFFFF81
   4E 18 0E 04 FFFFFF81 47 FFFFFF81 4C 0E 04 FFFFFF81 48 FFFFFF81 4B 0D 02
   FFFFFF81 49 0A 03 FFFFFF81 4A 08 01 06 3C 72 6F 6F 74 3E 09
   01 07 09 03 FFFFFF81 4D 06 01 07 70 61 63 6B 61 67 65
   09 04 FFFFFF81 4F FFFFFF81 50 02 03 53 65 71 0A 03 FFFFFF81 4D 06
   08 07 FFFFFF81 33 00 FFFFFF84 00 FFFFFF81 52 14 03 37 FFFFFF81 53 08 08
   FFFFFF81 2D FFFFFF81 51 FFFFFFC0 00 FFFFFF81 45 28 05 FFFFFF81 51 73 FFFFFF81 55 21
   02 FFFFFF81 56 01 66 75 73 65 20 61 70 70 65 6E 64 41
   6C 6C 20 69 6E 73 74 65 61 64 2E 20 54 68 69 73
   20 6D 65 74 68 6F 64 20 69 73 20 64 65 70 72 65
   63 61 74 65 64 20 62 65 63 61 75 73 65 20 6F 66
   20 74 68 65 0A 70 6F 73 73 69 62 6C 65 20 63 6F
   6E 66 75 73 69 6F 6E 20 77 69 74 68 20 60 61 70
   70 65 6E 64 28 41 6E 79 29 27 2E 08 07 FFFFFF81 42 00
   FFFFFF84 00 FFFFFF81 58 14 03 37 FFFFFF81 59 08 07 FFFFFF81 2D FFFFFF81 57 FFFFFFC0
   00 3D 08 07 FFFFFF81 33 00 FFFFFF84 00 FFFFFF81 5B 14 03 37 FFFFFF81 5C
   08 07 FFFFFF81 2D FFFFFF81 5A FFFFFFC0 00 3D 28 05 FFFFFF81 5A 73 FFFFFF81 5E
   21 02 FFFFFF81 5F 01 66 75 73 65 20 61 70 70 65 6E 64
   41 6C 6C 20 69 6E 73 74 65 61 64 2E 20 54 68 69
   73 20 6D 65 74 68 6F 64 20 69 73 20 64 65 70 72
   65 63 61 74 65 64 20 62 65 63 61 75 73 65 0A 6F
   66 20 74 68 65 20 70 6F 73 73 69 62 6C 65 20 63
   6F 6E 66 75 73 69 6F 6E 20 77 69 74 68 20 60 61
   70 70 65 6E 64 28 41 6E 79 29 27 2E 08 07 FFFFFF81 42
   00 FFFFFF84 00 FFFFFF81 61 14 07 37 FFFFFF81 62 FFFFFF81 63 FFFFFF81 65 08 07
   FFFFFF81 2D FFFFFF81 60 FFFFFFC0 00 3D 08 07 FFFFFF81 64 FFFFFF81 60 FFFFFFC0 00 2C
   01 06 6F 66 66 73 65 74 08 07 FFFFFF81 66 FFFFFF81 60 FFFFFFC0 00
   2C 01 03 6C 65 6E 08 07 FFFFFF81 33 00 FFFFFF84 00 FFFFFF81 68 14
   07 37 FFFFFF81 69 FFFFFF81 6A FFFFFF81 6B 08 07 FFFFFF81 2D FFFFFF81 67 FFFFFFC0 00
   3D 08 07 FFFFFF81 64 FFFFFF81 67 FFFFFFC0 00 2C 08 07 FFFFFF81 66 FFFFFF81 67
   FFFFFFC0 00 2C 28 05 FFFFFF81 67 73 FFFFFF81 6D 21 02 FFFFFF81 6E 01 70
   75 73 65 20 61 70 70 65 6E 64 41 6C 6C 20 69 6E
   73 74 65 61 64 2E 20 54 68 69 73 20 6D 65 74 68
   6F 64 20 69 73 20 64 65 70 72 65 63 61 74 65 64
   20 62 65 63 61 75 73 65 0A 6F 66 20 74 68 65 20
   70 6F 73 73 69 62 6C 65 20 63 6F 6E 66 75 73 69
   6F 6E 20 77 69 74 68 20 60 61 70 70 65 6E 64 28
   41 6E 79 2C 20 49 6E 74 2C 20 49 6E 74 29 27 2E
   08 07 FFFFFF81 33 00 FFFFFF84 00 FFFFFF81 70 14 03 37 FFFFFF81 71 08 08
   FFFFFF81 2D FFFFFF81 6F FFFFFFC0 00 FFFFFF81 72 10 03 19 FFFFFF81 73 09 03 FFFFFF81
   74 06 02 07 42 6F 6F 6C 65 61 6E 08 07 FFFFFF81 33 00
   FFFFFF84 00 FFFFFF81 76 14 03 37 FFFFFF81 77 08 08 FFFFFF81 2D FFFFFF81 75 FFFFFFC0
   00 FFFFFF81 78 10 03 19 FFFFFF81 79 09 03 FFFFFF81 7A 06 02 04 42
   79 74 65 08 07 FFFFFF81 33 00 FFFFFF84 00 FFFFFF81 7C 14 03 37 FFFFFF81
   7D 08 07 FFFFFF81 2D FFFFFF81 7B FFFFFFC0 00 18 08 07 FFFFFF81 33 00 FFFFFF84
   00 FFFFFF81 7F 14 03 37 FFFFFF82 00 08 08 FFFFFF81 2D FFFFFF81 7E FFFFFFC0 00
   FFFFFF82 01 10 03 19 FFFFFF82 02 09 03 FFFFFF82 03 06 02 05 53 68
   6F 72 74 08 07 FFFFFF81 33 00 FFFFFF84 00 FFFFFF82 05 14 03 37 FFFFFF82
   06 08 07 FFFFFF81 2D FFFFFF82 04 FFFFFFC0 00 2C 08 07 FFFFFF81 33 00 FFFFFF84
   00 FFFFFF82 08 14 03 37 FFFFFF82 09 08 08 FFFFFF81 2D FFFFFF82 07 FFFFFFC0 00
   FFFFFF82 0A 10 03 19 FFFFFF82 0B 09 03 FFFFFF82 0C 06 02 04 4C 6F
   6E 67 08 07 FFFFFF81 33 00 FFFFFF84 00 FFFFFF82 0E 14 03 37 FFFFFF82 0F
   08 08 FFFFFF81 2D FFFFFF82 0D FFFFFFC0 00 FFFFFF82 10 10 03 19 FFFFFF82 11 09
   03 FFFFFF82 12 06 02 05 46 6C 6F 61 74 08 07 FFFFFF81 33 00
   FFFFFF84 00 FFFFFF82 14 14 03 37 FFFFFF82 15 08 08 FFFFFF81 2D FFFFFF82 13 FFFFFFC0
   00 FFFFFF82 16 10 03 19 FFFFFF82 17 09 03 FFFFFF82 18 06 02 06 44
   6F 75 62 6C 65 08 07 FFFFFF82 1A 00 FFFFFF84 00 FFFFFF82 1B 01 06
   64 65 6C 65 74 65 14 05 37 FFFFFF82 1C FFFFFF82 1D 08 07 FFFFFF81
   1A FFFFFF82 19 FFFFFFC0 00 2C 08 07 FFFFFF81 1F FFFFFF82 19 FFFFFFC0 00 2C 08
   07 FFFFFF82 1F 00 FFFFFF84 00 FFFFFF82 20 01 07 72 65 70 6C 61 63
   65 14 07 43 FFFFFF82 21 FFFFFF82 22 FFFFFF82 23 08 07 FFFFFF81 1A FFFFFF82 1E
   FFFFFFC0 00 2C 08 07 FFFFFF81 1F FFFFFF82 1E FFFFFFC0 00 2C 08 06 5C FFFFFF82
   1E FFFFFFC0 00 1C 08 07 FFFFFF82 25 00 FFFFFF84 00 FFFFFF82 26 01 09 69
   6E 73 65 72 74 41 6C 6C 14 09 37 FFFFFF82 27 FFFFFF82 28 FFFFFF82
   29 FFFFFF82 2A 08 07 FFFFFF81 00 FFFFFF82 24 FFFFFFC0 00 2C 08 06 5C FFFFFF82
   24 FFFFFFC0 00 3D 08 07 FFFFFF81 64 FFFFFF82 24 FFFFFFC0 00 2C 08 07 FFFFFF81
   66 FFFFFF82 24 FFFFFFC0 00 2C 08 07 FFFFFF82 2C 00 FFFFFF84 00 FFFFFF82 2D 01
   06 69 6E 73 65 72 74 14 09 37 FFFFFF82 2E FFFFFF82 2F FFFFFF82 30
   FFFFFF82 31 08 07 FFFFFF81 00 FFFFFF82 2B FFFFFFC0 00 2C 08 06 5C FFFFFF82 2B
   FFFFFFC0 00 3D 08 07 FFFFFF81 64 FFFFFF82 2B FFFFFFC0 00 2C 08 07 FFFFFF81 66
   FFFFFF82 2B FFFFFFC0 00 2C 28 05 FFFFFF82 2B 73 FFFFFF82 33 21 02 FFFFFF82 34
   01 75 75 73 65 20 69 6E 73 65 72 74 41 6C 6C 20
   69 6E 73 74 65 61 64 2E 20 54 68 69 73 20 6D 65
   74 68 6F 64 20 69 73 20 64 65 70 72 65 63 61 74
   65 64 20 62 65 63 61 75 73 65 20 6F 66 20 74 68
   65 0A 70 6F 73 73 69 62 6C 65 20 63 6F 6E 66 75
   73 69 6F 6E 20 77 69 74 68 20 60 69 6E 73 65 72
   74 28 49 6E 74 2C 20 41 6E 79 2C 20 49 6E 74 2C
   20 49 6E 74 29 27 2E 08 07 FFFFFF82 2C 00 FFFFFF84 00 FFFFFF82 36
   14 05 37 FFFFFF82 37 FFFFFF82 39 08 07 FFFFFF82 38 FFFFFF82 35 FFFFFFC0 00 2C
   01 02 61 74 08 08 FFFFFF81 2D FFFFFF82 35 FFFFFFC0 00 FFFFFF81 36 08 07
   FFFFFF82 2C 00 FFFFFF84 00 FFFFFF82 3B 14 05 37 FFFFFF82 3C FFFFFF82 3D 08 07
   FFFFFF82 38 FFFFFF82 3A FFFFFFC0 00 2C 08 07 FFFFFF81 2D FFFFFF82 3A FFFFFFC0 00 1C
   08 07 FFFFFF82 25 00 FFFFFF84 00 FFFFFF82 3F 14 05 37 FFFFFF82 40 FFFFFF82 41
   08 07 FFFFFF82 38 FFFFFF82 3E FFFFFFC0 00 2C 08 08 FFFFFF81 2D FFFFFF82 3E FFFFFFC0
   00 FFFFFF81 45 08 07 FFFFFF82 2C 00 FFFFFF84 00 FFFFFF82 43 14 05 37 FFFFFF82
   44 FFFFFF82 45 08 07 FFFFFF82 38 FFFFFF82 42 FFFFFFC0 00 2C 08 08 FFFFFF81 2D
   FFFFFF82 42 FFFFFFC0 00 FFFFFF81 45 28 05 FFFFFF82 42 73 FFFFFF82 47 21 02 FFFFFF82
   48 01 6B 75 73 65 20 69 6E 73 65 72 74 41 6C 6C
   20 69 6E 73 74 65 61 64 2E 20 54 68 69 73 20 6D
   65 74 68 6F 64 20 69 73 20 64 65 70 72 65 63 61
   74 65 64 20 62 65 63 61 75 73 65 20 6F 66 0A 74
   68 65 20 70 6F 73 73 69 62 6C 65 20 63 6F 6E 66
   75 73 69 6F 6E 20 77 69 74 68 20 60 69 6E 73 65
   72 74 28 49 6E 74 2C 20 41 6E 79 29 27 2E 08 07
   FFFFFF82 25 00 FFFFFF84 00 FFFFFF82 4A 14 05 37 FFFFFF82 4B FFFFFF82 4C 08 07
   FFFFFF82 38 FFFFFF82 49 FFFFFFC0 00 2C 08 07 FFFFFF81 2D FFFFFF82 49 FFFFFFC0 00 3D
   08 07 FFFFFF82 2C 00 FFFFFF84 00 FFFFFF82 4E 14 05 37 FFFFFF82 4F FFFFFF82 50
   08 07 FFFFFF82 38 FFFFFF82 4D FFFFFFC0 00 2C 08 07 FFFFFF81 2D FFFFFF82 4D FFFFFFC0
   00 3D 28 05 FFFFFF82 4D 73 FFFFFF82 47 08 07 FFFFFF82 2C 00 FFFFFF84 00
   FFFFFF82 53 14 05 37 FFFFFF82 54 FFFFFF82 55 08 07 FFFFFF82 38 FFFFFF82 52 FFFFFFC0
   00 2C 08 08 FFFFFF81 2D FFFFFF82 52 FFFFFFC0 00 FFFFFF81 72 08 07 FFFFFF82 2C
   00 FFFFFF84 00 FFFFFF82 57 14 05 37 FFFFFF82 58 FFFFFF82 59 08 07 FFFFFF82 38
   FFFFFF82 56 FFFFFFC0 00 2C 08 08 FFFFFF81 2D FFFFFF82 56 FFFFFFC0 00 FFFFFF81 78 08
   07 FFFFFF82 2C 00 FFFFFF84 00 FFFFFF82 5B 14 05 37 FFFFFF82 5C FFFFFF82 5D 08
   07 FFFFFF82 38 FFFFFF82 5A FFFFFFC0 00 2C 08 07 FFFFFF81 2D FFFFFF82 5A FFFFFFC0 00
   18 08 07 FFFFFF82 2C 00 FFFFFF84 00 FFFFFF82 5F 14 05 37 FFFFFF82 60 FFFFFF82
   61 08 07 FFFFFF82 38 FFFFFF82 5E FFFFFFC0 00 2C 08 08 FFFFFF81 2D FFFFFF82 5E
   FFFFFFC0 00 FFFFFF82 01 08 07 FFFFFF82 2C 00 FFFFFF84 00 FFFFFF82 63 14 05 37
   FFFFFF82 64 FFFFFF82 65 08 07 FFFFFF82 38 FFFFFF82 62 FFFFFFC0 00 2C 08 07 FFFFFF81
   2D FFFFFF82 62 FFFFFFC0 00 2C 08 07 FFFFFF82 2C 00 FFFFFF84 00 FFFFFF82 67 14
   05 37 FFFFFF82 68 FFFFFF82 69 08 07 FFFFFF82 38 FFFFFF82 66 FFFFFFC0 00 2C 08
   08 FFFFFF81 2D FFFFFF82 66 FFFFFFC0 00 FFFFFF82 0A 08 07 FFFFFF82 2C 00 FFFFFF84 00
   FFFFFF82 6B 14 05 37 FFFFFF82 6C FFFFFF82 6D 08 07 FFFFFF82 38 FFFFFF82 6A FFFFFFC0
   00 2C 08 08 FFFFFF81 2D FFFFFF82 6A FFFFFFC0 00 FFFFFF82 10 08 07 FFFFFF82 2C
   00 FFFFFF84 00 FFFFFF82 6F 14 05 37 FFFFFF82 70 FFFFFF82 71 08 07 FFFFFF82 38
   FFFFFF82 6E FFFFFFC0 00 2C 08 08 FFFFFF81 2D FFFFFF82 6E FFFFFFC0 00 FFFFFF82 16 08
   07 FFFFFF82 73 00 FFFFFF84 00 FFFFFF82 74 01 07 69 6E 64 65 78 4F
   66 14 03 2C FFFFFF82 75 08 06 5C FFFFFF82 72 FFFFFFC0 00 1C 08 07
   FFFFFF82 73 00 FFFFFF84 00 FFFFFF82 77 14 05 2C FFFFFF82 78 FFFFFF82 79 08 06
   5C FFFFFF82 76 FFFFFFC0 00 1C 08 07 FFFFFF82 7A FFFFFF82 76 FFFFFFC0 00 2C 01
   09 66 72 6F 6D 49 6E 64 65 78 08 07 FFFFFF82 7C 00 FFFFFF84
   00 FFFFFF82 7D 01 0B 6C 61 73 74 49 6E 64 65 78 4F 66
   14 03 2C FFFFFF82 7E 08 06 5C FFFFFF82 7B FFFFFFC0 00 1C 08 07 FFFFFF82
   7C 00 FFFFFF84 00 FFFFFF83 00 14 05 2C FFFFFF83 01 FFFFFF83 02 08 06 5C
   FFFFFF82 7F FFFFFFC0 00 1C 08 07 FFFFFF82 7A FFFFFF82 7F FFFFFFC0 00 2C 08 06
   FFFFFF83 04 00 FFFFFF84 20 54 01 07 72 65 76 65 72 73 65 08
   07 FFFFFF83 06 00 FFFFFF84 20 FFFFFF83 07 01 08 74 6F 53 74 72 69
   6E 67 14 01 1C 08 07 FFFFFF83 09 00 FFFFFF84 00 FFFFFF83 07 01 06
   72 65 73 75 6C 74 28 05 00 FFFFFF83 0B FFFFFF83 0E 10 03 19
   FFFFFF83 0C 09 03 FFFFFF83 0D 06 02 10 53 65 72 69 61 6C 56
   65 72 73 69 6F 6E 55 49 44 1E 08 FFFFFF89 FFFFFFAF FFFFFFAA 01 FFFFFFAF
   FFFFFFD6 FFFFFFD4 FFFFFFF1 28 03 00 FFFFFF83 10 10 03 19 FFFFFF83 11 09 03 FFFFFF83
   12 06 02 0C 73 65 72 69 61 6C 69 7A 61 62 6C 65
   07 07 FFFFFF83 14 02 FFFFFF88 02 FFFFFF83 15 01 0D 53 74 72 69 6E
   67 42 75 69 6C 64 65 72 10 03 24 FFFFFF83 16 06 09 01
   02 FFFFFF84 FFFFFF80 FFFFFF80 FFFFFF88 02 FFFFFF83 17 13 04 FFFFFF83 16 0A 27 08 07
   35 FFFFFF83 16 FFFFFF84 00 FFFFFF83 19 14 02 FFFFFF83 15 05 06 3F FFFFFF83 16
   00 FFFFFF83 1B 15 04 FFFFFF83 1C FFFFFF83 1F 10 04 19 3E FFFFFF83 1D 10
   04 FFFFFF83 1E FFFFFF83 1F 0C 00 04 0B FFFFFF83 20 FFFFFF83 1A FFFFFF84 FFFFFF80 FFFFFF80
   FFFFFFC2 00 FFFFFF83 21 02 01 54 11 04 FFFFFF83 22 FFFFFF81 36 10 03 19
   FFFFFF83 23 09 03 FFFFFF83 24 06 02 07 4E 6F 74 68 69 6E 67
   08 0A FFFFFF83 26 FFFFFF83 16 FFFFFFC2 FFFFFF80 FFFFFF84 04 FFFFFF83 27 01 12 4D 49
   4E 5F 48 49 47 48 5F 53 55 52 52 4F 47 41 54 45
   15 01 18 08 08 FFFFFF83 29 FFFFFF83 16 FFFFFFA0 FFFFFF80 04 18 01 13 4D
   49 4E 5F 48 49 47 48 5F 53 55 52 52 4F 47 41 54
   45 20 08 0A FFFFFF83 2B FFFFFF83 16 FFFFFFC2 FFFFFF80 FFFFFF84 04 FFFFFF83 27 01 12
   4D 41 58 5F 48 49 47 48 5F 53 55 52 52 4F 47 41
   54 45 08 08 FFFFFF83 2D FFFFFF83 16 FFFFFFA0 FFFFFF80 04 18 01 13 4D 41
   58 5F 48 49 47 48 5F 53 55 52 52 4F 47 41 54 45
   20 08 0A FFFFFF83 2F FFFFFF83 16 FFFFFFC2 FFFFFF80 FFFFFF84 04 FFFFFF83 27 01 11 4D
   49 4E 5F 4C 4F 57 5F 53 55 52 52 4F 47 41 54 45
   08 08 FFFFFF83 31 FFFFFF83 16 FFFFFFA0 FFFFFF80 04 18 01 12 4D 49 4E 5F
   4C 4F 57 5F 53 55 52 52 4F 47 41 54 45 20 08 0A
   FFFFFF83 33 FFFFFF83 16 FFFFFFC2 FFFFFF80 FFFFFF84 04 FFFFFF83 27 01 11 4D 41 58 5F
   4C 4F 57 5F 53 55 52 52 4F 47 41 54 45 08 08 FFFFFF83
   35 FFFFFF83 16 FFFFFFA0 FFFFFF80 04 18 01 12 4D 41 58 5F 4C 4F 57
   5F 53 55 52 52 4F 47 41 54 45 20 08 0A FFFFFF83 37 FFFFFF83
   16 FFFFFFC2 FFFFFF80 FFFFFF84 04 FFFFFF83 27 01 0D 4D 49 4E 5F 53 55 52
   52 4F 47 41 54 45 08 08 FFFFFF83 39 FFFFFF83 16 FFFFFFA0 FFFFFF80 04 18
   01 0E 4D 49 4E 5F 53 55 52 52 4F 47 41 54 45 20
   08 0A FFFFFF83 3B FFFFFF83 16 FFFFFFC2 FFFFFF80 FFFFFF84 04 FFFFFF83 27 01 0D 4D 41
   58 5F 53 55 52 52 4F 47 41 54 45 08 08 FFFFFF83 3D FFFFFF83
   16 FFFFFFA0 FFFFFF80 04 18 01 0E 4D 41 58 5F 53 55 52 52 4F
   47 41 54 45 20 08 08 FFFFFF83 3F FFFFFF83 16 FFFFFF84 04 FFFFFF83 40 01
   0E 69 73 4C 6F 77 53 75 72 72 6F 67 61 74 65 14
   04 FFFFFF81 72 FFFFFF83 41 08 07 FFFFFF81 0F FFFFFF83 3E FFFFFFC0 00 18 08 08
   FFFFFF83 43 FFFFFF83 16 FFFFFF84 04 FFFFFF83 44 01 0F 69 73 48 69 67 68
   53 75 72 72 6F 67 61 74 65 14 04 FFFFFF81 72 FFFFFF83 45 08
   07 FFFFFF81 0F FFFFFF83 42 FFFFFFC0 00 18 08 08 FFFFFF83 47 FFFFFF83 16 FFFFFF84 04
   FFFFFF83 48 01 06 63 6F 70 79 4F 66 14 06 FFFFFF83 49 FFFFFF83 4B
   FFFFFF83 4D 10 05 FFFFFF83 4A FFFFFF83 1A 18 0D 02 FFFFFF83 16 08 08 FFFFFF83
   4C FFFFFF83 46 FFFFFFC0 00 FFFFFF83 49 01 03 73 72 63 08 07 FFFFFF83 4E
   FFFFFF83 46 FFFFFFC0 00 2C 01 09 6E 65 77 4C 65 6E 67 74 68
   
  InnerClass: 
   public final #1077= #525 of #11; //$anonfun$setLength$1=class scala/collection/mutable/StringBuilder$$anonfun$setLength$1 of class scala/collection/mutable/StringBuilder
  minor version: 0
  major version: 49
  Constant pool:
const #1 = Asciz	SourceFile;
const #2 = Asciz	StringBuilder.scala;
const #3 = Asciz	<clinit>;
const #4 = Asciz	()V;
const #5 = Asciz	Code;
const #6 = Asciz	serialVersionUID;
const #7 = Asciz	J;
const #8 = long	-8525408645367278351l;
const #10 = Asciz	scala/collection/mutable/StringBuilder;
const #11 = class	#10;	//  scala/collection/mutable/StringBuilder
const #12 = NameAndType	#6:#7;//  serialVersionUID:J
const #13 = Field	#11.#12;	//  scala/collection/mutable/StringBuilder.serialVersionUID:J
const #14 = Asciz	count;
const #15 = Asciz	I;
const #16 = Asciz	array;
const #17 = Asciz	[C;
const #18 = Asciz	initValue;
const #19 = Asciz	Ljava/lang/String;;
const #20 = Asciz	<init>;
const #21 = Asciz	(ILjava/lang/String;)V;
const #22 = Asciz	LineNumberTable;
const #23 = NameAndType	#18:#19;//  initValue:Ljava/lang/String;
const #24 = Field	#11.#23;	//  scala/collection/mutable/StringBuilder.initValue:Ljava/lang/String;
const #25 = Asciz	java/lang/Object;
const #26 = class	#25;	//  java/lang/Object
const #27 = NameAndType	#20:#4;//  "<init>":()V
const #28 = Method	#26.#27;	//  java/lang/Object."<init>":()V
const #29 = Asciz	scala/collection/generic/Growable$class;
const #30 = class	#29;	//  scala/collection/generic/Growable$class
const #31 = Asciz	$init$;
const #32 = Asciz	(Lscala/collection/generic/Growable;)V;
const #33 = NameAndType	#31:#32;//  $init$:(Lscala/collection/generic/Growable;)V
const #34 = Method	#30.#33;	//  scala/collection/generic/Growable$class.$init$:(Lscala/collection/generic/Growable;)V
const #35 = Asciz	scala/collection/generic/Builder$class;
const #36 = class	#35;	//  scala/collection/generic/Builder$class
const #37 = Asciz	(Lscala/collection/generic/Builder;)V;
const #38 = NameAndType	#31:#37;//  $init$:(Lscala/collection/generic/Builder;)V
const #39 = Method	#36.#38;	//  scala/collection/generic/Builder$class.$init$:(Lscala/collection/generic/Builder;)V
const #40 = Asciz	scala/collection/generic/TraversableTemplate$class;
const #41 = class	#40;	//  scala/collection/generic/TraversableTemplate$class
const #42 = Asciz	(Lscala/collection/generic/TraversableTemplate;)V;
const #43 = NameAndType	#31:#42;//  $init$:(Lscala/collection/generic/TraversableTemplate;)V
const #44 = Method	#41.#43;	//  scala/collection/generic/TraversableTemplate$class.$init$:(Lscala/collection/generic/TraversableTemplate;)V
const #45 = Asciz	scala/collection/generic/TraversableClass$class;
const #46 = class	#45;	//  scala/collection/generic/TraversableClass$class
const #47 = Asciz	(Lscala/collection/generic/TraversableClass;)V;
const #48 = NameAndType	#31:#47;//  $init$:(Lscala/collection/generic/TraversableClass;)V
const #49 = Method	#46.#48;	//  scala/collection/generic/TraversableClass$class.$init$:(Lscala/collection/generic/TraversableClass;)V
const #50 = Asciz	scala/collection/Traversable$class;
const #51 = class	#50;	//  scala/collection/Traversable$class
const #52 = Asciz	(Lscala/collection/Traversable;)V;
const #53 = NameAndType	#31:#52;//  $init$:(Lscala/collection/Traversable;)V
const #54 = Method	#51.#53;	//  scala/collection/Traversable$class.$init$:(Lscala/collection/Traversable;)V
const #55 = Asciz	scala/collection/mutable/Traversable$class;
const #56 = class	#55;	//  scala/collection/mutable/Traversable$class
const #57 = Asciz	(Lscala/collection/mutable/Traversable;)V;
const #58 = NameAndType	#31:#57;//  $init$:(Lscala/collection/mutable/Traversable;)V
const #59 = Method	#56.#58;	//  scala/collection/mutable/Traversable$class.$init$:(Lscala/collection/mutable/Traversable;)V
const #60 = Asciz	scala/collection/generic/IterableTemplate$class;
const #61 = class	#60;	//  scala/collection/generic/IterableTemplate$class
const #62 = Asciz	(Lscala/collection/generic/IterableTemplate;)V;
const #63 = NameAndType	#31:#62;//  $init$:(Lscala/collection/generic/IterableTemplate;)V
const #64 = Method	#61.#63;	//  scala/collection/generic/IterableTemplate$class.$init$:(Lscala/collection/generic/IterableTemplate;)V
const #65 = Asciz	scala/collection/Iterable$class;
const #66 = class	#65;	//  scala/collection/Iterable$class
const #67 = Asciz	(Lscala/collection/Iterable;)V;
const #68 = NameAndType	#31:#67;//  $init$:(Lscala/collection/Iterable;)V
const #69 = Method	#66.#68;	//  scala/collection/Iterable$class.$init$:(Lscala/collection/Iterable;)V
const #70 = Asciz	scala/collection/mutable/Iterable$class;
const #71 = class	#70;	//  scala/collection/mutable/Iterable$class
const #72 = Asciz	(Lscala/collection/mutable/Iterable;)V;
const #73 = NameAndType	#31:#72;//  $init$:(Lscala/collection/mutable/Iterable;)V
const #74 = Method	#71.#73;	//  scala/collection/mutable/Iterable$class.$init$:(Lscala/collection/mutable/Iterable;)V
const #75 = Asciz	scala/Function1$class;
const #76 = class	#75;	//  scala/Function1$class
const #77 = Asciz	(Lscala/Function1;)V;
const #78 = NameAndType	#31:#77;//  $init$:(Lscala/Function1;)V
const #79 = Method	#76.#78;	//  scala/Function1$class.$init$:(Lscala/Function1;)V
const #80 = Asciz	scala/PartialFunction$class;
const #81 = class	#80;	//  scala/PartialFunction$class
const #82 = Asciz	(Lscala/PartialFunction;)V;
const #83 = NameAndType	#31:#82;//  $init$:(Lscala/PartialFunction;)V
const #84 = Method	#81.#83;	//  scala/PartialFunction$class.$init$:(Lscala/PartialFunction;)V
const #85 = Asciz	scala/collection/generic/SequenceTemplate$class;
const #86 = class	#85;	//  scala/collection/generic/SequenceTemplate$class
const #87 = Asciz	(Lscala/collection/generic/SequenceTemplate;)V;
const #88 = NameAndType	#31:#87;//  $init$:(Lscala/collection/generic/SequenceTemplate;)V
const #89 = Method	#86.#88;	//  scala/collection/generic/SequenceTemplate$class.$init$:(Lscala/collection/generic/SequenceTemplate;)V
const #90 = Asciz	scala/collection/Sequence$class;
const #91 = class	#90;	//  scala/collection/Sequence$class
const #92 = Asciz	(Lscala/collection/Sequence;)V;
const #93 = NameAndType	#31:#92;//  $init$:(Lscala/collection/Sequence;)V
const #94 = Method	#91.#93;	//  scala/collection/Sequence$class.$init$:(Lscala/collection/Sequence;)V
const #95 = Asciz	scala/Unhashable$class;
const #96 = class	#95;	//  scala/Unhashable$class
const #97 = Asciz	(Lscala/Unhashable;)V;
const #98 = NameAndType	#31:#97;//  $init$:(Lscala/Unhashable;)V
const #99 = Method	#96.#98;	//  scala/Unhashable$class.$init$:(Lscala/Unhashable;)V
const #100 = Asciz	scala/collection/mutable/Sequence$class;
const #101 = class	#100;	//  scala/collection/mutable/Sequence$class
const #102 = Asciz	(Lscala/collection/mutable/Sequence;)V;
const #103 = NameAndType	#31:#102;//  $init$:(Lscala/collection/mutable/Sequence;)V
const #104 = Method	#101.#103;	//  scala/collection/mutable/Sequence$class.$init$:(Lscala/collection/mutable/Sequence;)V
const #105 = Asciz	scala/collection/generic/VectorTemplate$class;
const #106 = class	#105;	//  scala/collection/generic/VectorTemplate$class
const #107 = Asciz	(Lscala/collection/generic/VectorTemplate;)V;
const #108 = NameAndType	#31:#107;//  $init$:(Lscala/collection/generic/VectorTemplate;)V
const #109 = Method	#106.#108;	//  scala/collection/generic/VectorTemplate$class.$init$:(Lscala/collection/generic/VectorTemplate;)V
const #110 = Asciz	scala/collection/Vector$class;
const #111 = class	#110;	//  scala/collection/Vector$class
const #112 = Asciz	(Lscala/collection/Vector;)V;
const #113 = NameAndType	#31:#112;//  $init$:(Lscala/collection/Vector;)V
const #114 = Method	#111.#113;	//  scala/collection/Vector$class.$init$:(Lscala/collection/Vector;)V
const #115 = Asciz	scala/collection/generic/MutableVectorTemplate$class;
const #116 = class	#115;	//  scala/collection/generic/MutableVectorTemplate$class
const #117 = Asciz	(Lscala/collection/generic/MutableVectorTemplate;)V;
const #118 = NameAndType	#31:#117;//  $init$:(Lscala/collection/generic/MutableVectorTemplate;)V
const #119 = Method	#116.#118;	//  scala/collection/generic/MutableVectorTemplate$class.$init$:(Lscala/collection/generic/MutableVectorTemplate;)V
const #120 = Asciz	scala/collection/mutable/Vector$class;
const #121 = class	#120;	//  scala/collection/mutable/Vector$class
const #122 = Asciz	(Lscala/collection/mutable/Vector;)V;
const #123 = NameAndType	#31:#122;//  $init$:(Lscala/collection/mutable/Vector;)V
const #124 = Method	#121.#123;	//  scala/collection/mutable/Vector$class.$init$:(Lscala/collection/mutable/Vector;)V
const #125 = Asciz	scala/Predef$;
const #126 = class	#125;	//  scala/Predef$
const #127 = Asciz	MODULE$;
const #128 = Asciz	Lscala/Predef$;;
const #129 = NameAndType	#127:#128;//  MODULE$:Lscala/Predef$;
const #130 = Field	#126.#129;	//  scala/Predef$.MODULE$:Lscala/Predef$;
const #131 = Asciz	require;
const #132 = Asciz	(Z)V;
const #133 = NameAndType	#131:#132;//  require:(Z)V
const #134 = Method	#126.#133;	//  scala/Predef$.require:(Z)V
const #135 = Asciz	java/lang/String;
const #136 = class	#135;	//  java/lang/String
const #137 = Asciz	length;
const #138 = Asciz	()I;
const #139 = NameAndType	#137:#138;//  length:()I
const #140 = Method	#136.#139;	//  java/lang/String.length:()I
const #141 = NameAndType	#16:#17;//  array:[C
const #142 = Field	#11.#141;	//  scala/collection/mutable/StringBuilder.array:[C
const #143 = NameAndType	#14:#15;//  count:I
const #144 = Field	#11.#143;	//  scala/collection/mutable/StringBuilder.count:I
const #145 = Asciz	append;
const #146 = Asciz	(Ljava/lang/String;)Lscala/collection/mutable/StringBuilder;;
const #147 = NameAndType	#145:#146;//  append:(Ljava/lang/String;)Lscala/collection/mutable/StringBuilder;
const #148 = Method	#11.#147;	//  scala/collection/mutable/StringBuilder.append:(Ljava/lang/String;)Lscala/collection/mutable/StringBuilder;
const #149 = Asciz	this;
const #150 = Asciz	Lscala/collection/mutable/StringBuilder;;
const #151 = Asciz	initCapacity;
const #152 = Asciz	LocalVariableTable;
const #153 = Asciz	apply;
const #154 = Asciz	(I)Ljava/lang/Object;;
const #155 = Asciz	(I)C;
const #156 = NameAndType	#153:#155;//  apply:(I)C
const #157 = Method	#11.#156;	//  scala/collection/mutable/StringBuilder.apply:(I)C
const #158 = Asciz	scala/runtime/BoxesRunTime;
const #159 = class	#158;	//  scala/runtime/BoxesRunTime
const #160 = Asciz	boxToCharacter;
const #161 = Asciz	(C)Ljava/lang/Character;;
const #162 = NameAndType	#160:#161;//  boxToCharacter:(C)Ljava/lang/Character;
const #163 = Method	#159.#162;	//  scala/runtime/BoxesRunTime.boxToCharacter:(C)Ljava/lang/Character;
const #164 = Asciz	idx;
const #165 = Asciz	(Ljava/lang/Object;)Ljava/lang/Object;;
const #166 = Asciz	unboxToInt;
const #167 = Asciz	(Ljava/lang/Object;)I;
const #168 = NameAndType	#166:#167;//  unboxToInt:(Ljava/lang/Object;)I
const #169 = Method	#159.#168;	//  scala/runtime/BoxesRunTime.unboxToInt:(Ljava/lang/Object;)I
const #170 = Asciz	v1;
const #171 = Asciz	Ljava/lang/Object;;
const #172 = Asciz	update;
const #173 = Asciz	(ILjava/lang/Object;)V;
const #174 = Asciz	unboxToChar;
const #175 = Asciz	(Ljava/lang/Object;)C;
const #176 = NameAndType	#174:#175;//  unboxToChar:(Ljava/lang/Object;)C
const #177 = Method	#159.#176;	//  scala/runtime/BoxesRunTime.unboxToChar:(Ljava/lang/Object;)C
const #178 = Asciz	(IC)V;
const #179 = NameAndType	#172:#178;//  update:(IC)V
const #180 = Method	#11.#179;	//  scala/collection/mutable/StringBuilder.update:(IC)V
const #181 = Asciz	elem;
const #182 = Asciz	$plus$eq;
const #183 = Asciz	(Ljava/lang/Object;)Lscala/collection/generic/Builder;;
const #184 = Asciz	(C)Lscala/collection/mutable/StringBuilder;;
const #185 = NameAndType	#182:#184;//  $plus$eq:(C)Lscala/collection/mutable/StringBuilder;
const #186 = Method	#11.#185;	//  scala/collection/mutable/StringBuilder.$plus$eq:(C)Lscala/collection/mutable/StringBuilder;
const #187 = Asciz	(Ljava/lang/Object;)Lscala/collection/generic/Growable;;
const #188 = Asciz	reverse;
const #189 = Asciz	()Lscala/collection/generic/VectorTemplate;;
const #190 = Asciz	()Lscala/collection/mutable/StringBuilder;;
const #191 = NameAndType	#188:#190;//  reverse:()Lscala/collection/mutable/StringBuilder;
const #192 = Method	#11.#191;	//  scala/collection/mutable/StringBuilder.reverse:()Lscala/collection/mutable/StringBuilder;
const #193 = Asciz	()Lscala/collection/generic/IterableTemplate;;
const #194 = Asciz	result;
const #195 = Asciz	()Ljava/lang/Object;;
const #196 = Asciz	()Ljava/lang/String;;
const #197 = NameAndType	#194:#196;//  result:()Ljava/lang/String;
const #198 = Method	#11.#197;	//  scala/collection/mutable/StringBuilder.result:()Ljava/lang/String;
const #199 = Asciz	view;
const #200 = Asciz	(II)Lscala/collection/generic/VectorView;;
const #201 = Asciz	scala/collection/generic/MutableVectorTemplate;
const #202 = class	#201;	//  scala/collection/generic/MutableVectorTemplate
const #203 = Asciz	(II)Lscala/collection/generic/MutableVectorView;;
const #204 = NameAndType	#199:#203;//  view:(II)Lscala/collection/generic/MutableVectorView;
const #205 = InterfaceMethod	#202.#204;	//  scala/collection/generic/MutableVectorTemplate.view:(II)Lscala/collection/generic/MutableVectorView;
const #206 = Asciz	from;
const #207 = Asciz	until;
const #208 = Asciz	(II)Lscala/collection/generic/SequenceView;;
const #209 = Asciz	(II)Lscala/collection/generic/IterableView;;
const #210 = Asciz	(II)Lscala/collection/generic/TraversableView;;
const #211 = Asciz	slice;
const #212 = Asciz	(II)Lscala/collection/generic/TraversableTemplate;;
const #213 = Asciz	scala/collection/generic/VectorTemplate;
const #214 = class	#213;	//  scala/collection/generic/VectorTemplate
const #215 = Asciz	(II)Lscala/collection/generic/VectorTemplate;;
const #216 = NameAndType	#211:#215;//  slice:(II)Lscala/collection/generic/VectorTemplate;
const #217 = InterfaceMethod	#214.#216;	//  scala/collection/generic/VectorTemplate.slice:(II)Lscala/collection/generic/VectorTemplate;
const #218 = Asciz	tail;
const #219 = Asciz	()Lscala/collection/generic/TraversableTemplate;;
const #220 = NameAndType	#218:#189;//  tail:()Lscala/collection/generic/VectorTemplate;
const #221 = InterfaceMethod	#214.#220;	//  scala/collection/generic/VectorTemplate.tail:()Lscala/collection/generic/VectorTemplate;
const #222 = Asciz	init;
const #223 = NameAndType	#222:#189;//  init:()Lscala/collection/generic/VectorTemplate;
const #224 = InterfaceMethod	#214.#223;	//  scala/collection/generic/VectorTemplate.init:()Lscala/collection/generic/VectorTemplate;
const #225 = Asciz	take;
const #226 = Asciz	(I)Lscala/collection/generic/TraversableTemplate;;
const #227 = Asciz	(I)Lscala/collection/generic/VectorTemplate;;
const #228 = NameAndType	#225:#227;//  take:(I)Lscala/collection/generic/VectorTemplate;
const #229 = InterfaceMethod	#214.#228;	//  scala/collection/generic/VectorTemplate.take:(I)Lscala/collection/generic/VectorTemplate;
const #230 = Asciz	n;
const #231 = Asciz	drop;
const #232 = NameAndType	#231:#227;//  drop:(I)Lscala/collection/generic/VectorTemplate;
const #233 = InterfaceMethod	#214.#232;	//  scala/collection/generic/VectorTemplate.drop:(I)Lscala/collection/generic/VectorTemplate;
const #234 = Asciz	takeRight;
const #235 = Asciz	(I)Lscala/collection/generic/IterableTemplate;;
const #236 = NameAndType	#234:#227;//  takeRight:(I)Lscala/collection/generic/VectorTemplate;
const #237 = InterfaceMethod	#214.#236;	//  scala/collection/generic/VectorTemplate.takeRight:(I)Lscala/collection/generic/VectorTemplate;
const #238 = Asciz	dropRight;
const #239 = NameAndType	#238:#227;//  dropRight:(I)Lscala/collection/generic/VectorTemplate;
const #240 = InterfaceMethod	#214.#239;	//  scala/collection/generic/VectorTemplate.dropRight:(I)Lscala/collection/generic/VectorTemplate;
const #241 = Asciz	takeWhile;
const #242 = Asciz	(Lscala/Function1;)Lscala/collection/generic/TraversableTemplate;;
const #243 = Asciz	(Lscala/Function1;)Lscala/collection/generic/VectorTemplate;;
const #244 = NameAndType	#241:#243;//  takeWhile:(Lscala/Function1;)Lscala/collection/generic/VectorTemplate;
const #245 = InterfaceMethod	#214.#244;	//  scala/collection/generic/VectorTemplate.takeWhile:(Lscala/Function1;)Lscala/collection/generic/VectorTemplate;
const #246 = Asciz	p;
const #247 = Asciz	Lscala/Function1;;
const #248 = Asciz	dropWhile;
const #249 = NameAndType	#248:#243;//  dropWhile:(Lscala/Function1;)Lscala/collection/generic/VectorTemplate;
const #250 = InterfaceMethod	#214.#249;	//  scala/collection/generic/VectorTemplate.dropWhile:(Lscala/Function1;)Lscala/collection/generic/VectorTemplate;
const #251 = Asciz	isDefinedAt;
const #252 = Asciz	(Ljava/lang/Object;)Z;
const #253 = Asciz	scala/collection/generic/SequenceTemplate;
const #254 = class	#253;	//  scala/collection/generic/SequenceTemplate
const #255 = Asciz	(I)Z;
const #256 = NameAndType	#251:#255;//  isDefinedAt:(I)Z
const #257 = InterfaceMethod	#254.#256;	//  scala/collection/generic/SequenceTemplate.isDefinedAt:(I)Z
const #258 = Asciz	x;
const #259 = Asciz	andThen;
const #260 = Asciz	(Lscala/Function1;)Lscala/Function1;;
const #261 = Asciz	scala/PartialFunction;
const #262 = class	#261;	//  scala/PartialFunction
const #263 = Asciz	(Lscala/Function1;)Lscala/PartialFunction;;
const #264 = NameAndType	#259:#263;//  andThen:(Lscala/Function1;)Lscala/PartialFunction;
const #265 = InterfaceMethod	#262.#264;	//  scala/PartialFunction.andThen:(Lscala/Function1;)Lscala/PartialFunction;
const #266 = Asciz	g;
const #267 = Asciz	toString;
const #268 = NameAndType	#267:#196;//  toString:()Ljava/lang/String;
const #269 = Method	#11.#268;	//  scala/collection/mutable/StringBuilder.toString:()Ljava/lang/String;
const #270 = Asciz	()[C;
const #271 = NameAndType	#16:#270;//  array:()[C
const #272 = Method	#11.#271;	//  scala/collection/mutable/StringBuilder.array:()[C
const #273 = NameAndType	#14:#138;//  count:()I
const #274 = Method	#11.#273;	//  scala/collection/mutable/StringBuilder.count:()I
const #275 = Asciz	([CII)V;
const #276 = NameAndType	#20:#275;//  "<init>":([CII)V
const #277 = Method	#136.#276;	//  java/lang/String."<init>":([CII)V
const #278 = Asciz	scala/collection/mutable/StringBuilder$;
const #279 = class	#278;	//  scala/collection/mutable/StringBuilder$
const #280 = Asciz	Lscala/collection/mutable/StringBuilder$;;
const #281 = NameAndType	#127:#280;//  MODULE$:Lscala/collection/mutable/StringBuilder$;
const #282 = Field	#279.#281;	//  scala/collection/mutable/StringBuilder$.MODULE$:Lscala/collection/mutable/StringBuilder$;
const #283 = Asciz	scala$collection$mutable$StringBuilder$$MIN_SURROGATE;
const #284 = Asciz	()C;
const #285 = NameAndType	#283:#284;//  scala$collection$mutable$StringBuilder$$MIN_SURROGATE:()C
const #286 = Method	#279.#285;	//  scala/collection/mutable/StringBuilder$.scala$collection$mutable$StringBuilder$$MIN_SURROGATE:()C
const #287 = Asciz	scala$collection$mutable$StringBuilder$$MAX_SURROGATE;
const #288 = NameAndType	#287:#284;//  scala$collection$mutable$StringBuilder$$MAX_SURROGATE:()C
const #289 = Method	#279.#288;	//  scala/collection/mutable/StringBuilder$.scala$collection$mutable$StringBuilder$$MAX_SURROGATE:()C
const #290 = Asciz	scala$collection$mutable$StringBuilder$$isLowSurrogate;
const #291 = Asciz	(C)Z;
const #292 = NameAndType	#290:#291;//  scala$collection$mutable$StringBuilder$$isLowSurrogate:(C)Z
const #293 = Method	#279.#292;	//  scala/collection/mutable/StringBuilder$.scala$collection$mutable$StringBuilder$$isLowSurrogate:(C)Z
const #294 = Asciz	scala$collection$mutable$StringBuilder$$isHighSurrogate;
const #295 = NameAndType	#294:#291;//  scala$collection$mutable$StringBuilder$$isHighSurrogate:(C)Z
const #296 = Method	#279.#295;	//  scala/collection/mutable/StringBuilder$.scala$collection$mutable$StringBuilder$$isHighSurrogate:(C)Z
const #297 = Asciz	hasSurrogate;
const #298 = Asciz	Z;
const #299 = Asciz	j;
const #300 = Asciz	temp;
const #301 = Asciz	C;
const #302 = Asciz	temp2;
const #303 = Asciz	i;
const #304 = Asciz	c2;
const #305 = Asciz	c1;
const #306 = Asciz	lastIndexOf;
const #307 = Asciz	(Ljava/lang/String;I)I;
const #308 = Asciz	scala/runtime/ScalaRunTime$;
const #309 = class	#308;	//  scala/runtime/ScalaRunTime$
const #310 = Asciz	Lscala/runtime/ScalaRunTime$;;
const #311 = NameAndType	#127:#310;//  MODULE$:Lscala/runtime/ScalaRunTime$;
const #312 = Field	#309.#311;	//  scala/runtime/ScalaRunTime$.MODULE$:Lscala/runtime/ScalaRunTime$;
const #313 = Asciz	stringWrapper;
const #314 = Asciz	(Ljava/lang/String;)Lscala/runtime/RichString;;
const #315 = NameAndType	#313:#314;//  stringWrapper:(Ljava/lang/String;)Lscala/runtime/RichString;
const #316 = Method	#126.#315;	//  scala/Predef$.stringWrapper:(Ljava/lang/String;)Lscala/runtime/RichString;
const #317 = Asciz	scala/runtime/RichString;
const #318 = class	#317;	//  scala/runtime/RichString
const #319 = Asciz	toArray;
const #320 = NameAndType	#319:#270;//  toArray:()[C
const #321 = Method	#318.#320;	//  scala/runtime/RichString.toArray:()[C
const #322 = Asciz	boxArray;
const #323 = Asciz	(Ljava/lang/Object;)Lscala/runtime/BoxedArray;;
const #324 = NameAndType	#322:#323;//  boxArray:(Ljava/lang/Object;)Lscala/runtime/BoxedArray;
const #325 = Method	#309.#324;	//  scala/runtime/ScalaRunTime$.boxArray:(Ljava/lang/Object;)Lscala/runtime/BoxedArray;
const #326 = Asciz	lastIndexOfSeq;
const #327 = Asciz	(Lscala/collection/Sequence;I)I;
const #328 = NameAndType	#326:#327;//  lastIndexOfSeq:(Lscala/collection/Sequence;I)I
const #329 = InterfaceMethod	#254.#328;	//  scala/collection/generic/SequenceTemplate.lastIndexOfSeq:(Lscala/collection/Sequence;I)I
const #330 = Asciz	str;
const #331 = Asciz	fromIndex;
const #332 = Asciz	(Ljava/lang/String;)I;
const #333 = Asciz	indexOf;
const #334 = Asciz	indexOfSeq;
const #335 = NameAndType	#334:#327;//  indexOfSeq:(Lscala/collection/Sequence;I)I
const #336 = InterfaceMethod	#254.#335;	//  scala/collection/generic/SequenceTemplate.indexOfSeq:(Lscala/collection/Sequence;I)I
const #337 = Asciz	(Lscala/collection/Sequence;)I;
const #338 = NameAndType	#334:#337;//  indexOfSeq:(Lscala/collection/Sequence;)I
const #339 = InterfaceMethod	#254.#338;	//  scala/collection/generic/SequenceTemplate.indexOfSeq:(Lscala/collection/Sequence;)I
const #340 = Asciz	insert;
const #341 = Asciz	(ID)Lscala/collection/mutable/StringBuilder;;
const #342 = Asciz	valueOf;
const #343 = Asciz	(D)Ljava/lang/String;;
const #344 = NameAndType	#342:#343;//  valueOf:(D)Ljava/lang/String;
const #345 = Method	#136.#344;	//  java/lang/String.valueOf:(D)Ljava/lang/String;
const #346 = Asciz	(ILjava/lang/String;)Lscala/collection/mutable/StringBuilder;;
const #347 = NameAndType	#340:#346;//  insert:(ILjava/lang/String;)Lscala/collection/mutable/StringBuilder;
const #348 = Method	#11.#347;	//  scala/collection/mutable/StringBuilder.insert:(ILjava/lang/String;)Lscala/collection/mutable/StringBuilder;
const #349 = Asciz	at;
const #350 = Asciz	D;
const #351 = Asciz	(IF)Lscala/collection/mutable/StringBuilder;;
const #352 = Asciz	(F)Ljava/lang/String;;
const #353 = NameAndType	#342:#352;//  valueOf:(F)Ljava/lang/String;
const #354 = Method	#136.#353;	//  java/lang/String.valueOf:(F)Ljava/lang/String;
const #355 = Asciz	F;
const #356 = Asciz	(IJ)Lscala/collection/mutable/StringBuilder;;
const #357 = Asciz	(J)Ljava/lang/String;;
const #358 = NameAndType	#342:#357;//  valueOf:(J)Ljava/lang/String;
const #359 = Method	#136.#358;	//  java/lang/String.valueOf:(J)Ljava/lang/String;
const #360 = Asciz	(II)Lscala/collection/mutable/StringBuilder;;
const #361 = Asciz	(I)Ljava/lang/String;;
const #362 = NameAndType	#342:#361;//  valueOf:(I)Ljava/lang/String;
const #363 = Method	#136.#362;	//  java/lang/String.valueOf:(I)Ljava/lang/String;
const #364 = Asciz	(IS)Lscala/collection/mutable/StringBuilder;;
const #365 = Asciz	boxToShort;
const #366 = Asciz	(S)Ljava/lang/Short;;
const #367 = NameAndType	#365:#366;//  boxToShort:(S)Ljava/lang/Short;
const #368 = Method	#159.#367;	//  scala/runtime/BoxesRunTime.boxToShort:(S)Ljava/lang/Short;
const #369 = Asciz	(Ljava/lang/Object;)Ljava/lang/String;;
const #370 = NameAndType	#342:#369;//  valueOf:(Ljava/lang/Object;)Ljava/lang/String;
const #371 = Method	#136.#370;	//  java/lang/String.valueOf:(Ljava/lang/Object;)Ljava/lang/String;
const #372 = Asciz	S;
const #373 = Asciz	(IC)Lscala/collection/mutable/StringBuilder;;
const #374 = Asciz	java/lang/StringIndexOutOfBoundsException;
const #375 = class	#374;	//  java/lang/StringIndexOutOfBoundsException
const #376 = Asciz	(I)V;
const #377 = NameAndType	#20:#376;//  "<init>":(I)V
const #378 = Method	#375.#377;	//  java/lang/StringIndexOutOfBoundsException."<init>":(I)V
const #379 = Asciz	ensureCapacity;
const #380 = NameAndType	#379:#376;//  ensureCapacity:(I)V
const #381 = Method	#11.#380;	//  scala/collection/mutable/StringBuilder.ensureCapacity:(I)V
const #382 = Asciz	scala/compat/Platform$;
const #383 = class	#382;	//  scala/compat/Platform$
const #384 = Asciz	Lscala/compat/Platform$;;
const #385 = NameAndType	#127:#384;//  MODULE$:Lscala/compat/Platform$;
const #386 = Field	#383.#385;	//  scala/compat/Platform$.MODULE$:Lscala/compat/Platform$;
const #387 = Asciz	arraycopy;
const #388 = Asciz	(Ljava/lang/Object;ILjava/lang/Object;II)V;
const #389 = NameAndType	#387:#388;//  arraycopy:(Ljava/lang/Object;ILjava/lang/Object;II)V
const #390 = Method	#383.#389;	//  scala/compat/Platform$.arraycopy:(Ljava/lang/Object;ILjava/lang/Object;II)V
const #391 = Asciz	count_$eq;
const #392 = NameAndType	#391:#376;//  count_$eq:(I)V
const #393 = Method	#11.#392;	//  scala/collection/mutable/StringBuilder.count_$eq:(I)V
const #394 = Asciz	(IB)Lscala/collection/mutable/StringBuilder;;
const #395 = Asciz	boxToByte;
const #396 = Asciz	(B)Ljava/lang/Byte;;
const #397 = NameAndType	#395:#396;//  boxToByte:(B)Ljava/lang/Byte;
const #398 = Method	#159.#397;	//  scala/runtime/BoxesRunTime.boxToByte:(B)Ljava/lang/Byte;
const #399 = Asciz	B;
const #400 = Asciz	(IZ)Lscala/collection/mutable/StringBuilder;;
const #401 = Asciz	(Z)Ljava/lang/String;;
const #402 = NameAndType	#342:#401;//  valueOf:(Z)Ljava/lang/String;
const #403 = Method	#136.#402;	//  java/lang/String.valueOf:(Z)Ljava/lang/String;
const #404 = Asciz	(I[C)Lscala/collection/mutable/StringBuilder;;
const #405 = Asciz	insertAll;
const #406 = NameAndType	#405:#404;//  insertAll:(I[C)Lscala/collection/mutable/StringBuilder;
const #407 = Method	#11.#406;	//  scala/collection/mutable/StringBuilder.insertAll:(I[C)Lscala/collection/mutable/StringBuilder;
const #408 = Asciz	len;
const #409 = Asciz	(ILscala/collection/Sequence;)Lscala/collection/mutable/StringBuilder;;
const #410 = NameAndType	#405:#409;//  insertAll:(ILscala/collection/Sequence;)Lscala/collection/mutable/StringBuilder;
const #411 = Method	#11.#410;	//  scala/collection/mutable/StringBuilder.insertAll:(ILscala/collection/Sequence;)Lscala/collection/mutable/StringBuilder;
const #412 = Asciz	Lscala/collection/Sequence;;
const #413 = Asciz	(ILscala/collection/Sequence<Ljava/lang/Character;>;)Lscala/collection/mutable/StringBuilder;;
const #414 = Asciz	Signature;
const #415 = Asciz	scala/collection/generic/TraversableTemplate;
const #416 = class	#415;	//  scala/collection/generic/TraversableTemplate
const #417 = Asciz	()Lscala/runtime/BoxedArray;;
const #418 = NameAndType	#319:#417;//  toArray:()Lscala/runtime/BoxedArray;
const #419 = InterfaceMethod	#416.#418;	//  scala/collection/generic/TraversableTemplate.toArray:()Lscala/runtime/BoxedArray;
const #420 = Asciz	java/lang/Character;
const #421 = class	#420;	//  java/lang/Character
const #422 = Asciz	TYPE;
const #423 = Asciz	Ljava/lang/Class;;
const #424 = NameAndType	#422:#423;//  TYPE:Ljava/lang/Class;
const #425 = Field	#421.#424;	//  java/lang/Character.TYPE:Ljava/lang/Class;
const #426 = Asciz	arrayValue;
const #427 = Asciz	(Lscala/runtime/BoxedArray;Ljava/lang/Class;)Ljava/lang/Object;;
const #428 = NameAndType	#426:#427;//  arrayValue:(Lscala/runtime/BoxedArray;Ljava/lang/Class;)Ljava/lang/Object;
const #429 = Method	#309.#428;	//  scala/runtime/ScalaRunTime$.arrayValue:(Lscala/runtime/BoxedArray;Ljava/lang/Class;)Ljava/lang/Object;
const #430 = Asciz	scala/runtime/BoxedArray;
const #431 = class	#430;	//  scala/runtime/BoxedArray
const #432 = class	#17;	//  "[C"
const #433 = Asciz	equals;
const #434 = NameAndType	#433:#252;//  equals:(Ljava/lang/Object;)Z
const #435 = Method	#26.#434;	//  java/lang/Object.equals:(Ljava/lang/Object;)Z
const #436 = Asciz	null;
const #437 = String	#436;	//  null
const #438 = Asciz	getChars;
const #439 = Asciz	(II[CI)V;
const #440 = NameAndType	#438:#439;//  getChars:(II[CI)V
const #441 = Method	#136.#440;	//  java/lang/String.getChars:(II[CI)V
const #442 = Asciz	(ILjava/lang/Object;)Lscala/collection/mutable/StringBuilder;;
const #443 = Asciz	(I[CII)Lscala/collection/mutable/StringBuilder;;
const #444 = NameAndType	#405:#443;//  insertAll:(I[CII)Lscala/collection/mutable/StringBuilder;
const #445 = Method	#11.#444;	//  scala/collection/mutable/StringBuilder.insertAll:(I[CII)Lscala/collection/mutable/StringBuilder;
const #446 = Asciz	index;
const #447 = Asciz	offset;
const #448 = Method	#11.#27;	//  scala/collection/mutable/StringBuilder."<init>":()V
const #449 = Asciz	offset ;
const #450 = String	#449;	//  offset 
const #451 = Asciz	(Ljava/lang/Object;)Lscala/collection/mutable/StringBuilder;;
const #452 = NameAndType	#145:#451;//  append:(Ljava/lang/Object;)Lscala/collection/mutable/StringBuilder;
const #453 = Method	#11.#452;	//  scala/collection/mutable/StringBuilder.append:(Ljava/lang/Object;)Lscala/collection/mutable/StringBuilder;
const #454 = Asciz	boxToInteger;
const #455 = Asciz	(I)Ljava/lang/Integer;;
const #456 = NameAndType	#454:#455;//  boxToInteger:(I)Ljava/lang/Integer;
const #457 = Method	#159.#456;	//  scala/runtime/BoxesRunTime.boxToInteger:(I)Ljava/lang/Integer;
const #458 = Asciz	, len ;
const #459 = String	#458;	//  , len 
const #460 = Asciz	, str.length ;
const #461 = String	#460;	//  , str.length 
const #462 = Method	#11.#268;	//  scala/collection/mutable/StringBuilder.toString:()Ljava/lang/String;
const #463 = Asciz	(Ljava/lang/String;)V;
const #464 = NameAndType	#20:#463;//  "<init>":(Ljava/lang/String;)V
const #465 = Method	#375.#464;	//  java/lang/StringIndexOutOfBoundsException."<init>":(Ljava/lang/String;)V
const #466 = Asciz	replace;
const #467 = Asciz	(IILjava/lang/String;)V;
const #468 = Asciz	start;
const #469 = Asciz	end;
const #470 = Asciz	end0;
const #471 = Asciz	newCount;
const #472 = Asciz	delete;
const #473 = Asciz	(D)Lscala/collection/mutable/StringBuilder;;
const #474 = Asciz	(F)Lscala/collection/mutable/StringBuilder;;
const #475 = Asciz	(J)Lscala/collection/mutable/StringBuilder;;
const #476 = Asciz	(I)Lscala/collection/mutable/StringBuilder;;
const #477 = Asciz	(S)Lscala/collection/mutable/StringBuilder;;
const #478 = Asciz	(B)Lscala/collection/mutable/StringBuilder;;
const #479 = Asciz	(Z)Lscala/collection/mutable/StringBuilder;;
const #480 = Asciz	([CII)Lscala/collection/mutable/StringBuilder;;
const #481 = Asciz	appendAll;
const #482 = NameAndType	#481:#480;//  appendAll:([CII)Lscala/collection/mutable/StringBuilder;
const #483 = Method	#11.#482;	//  scala/collection/mutable/StringBuilder.appendAll:([CII)Lscala/collection/mutable/StringBuilder;
const #484 = Asciz	([C)Lscala/collection/mutable/StringBuilder;;
const #485 = NameAndType	#481:#484;//  appendAll:([C)Lscala/collection/mutable/StringBuilder;
const #486 = Method	#11.#485;	//  scala/collection/mutable/StringBuilder.appendAll:([C)Lscala/collection/mutable/StringBuilder;
const #487 = Asciz	(Lscala/collection/Sequence;)Lscala/collection/mutable/StringBuilder;;
const #488 = NameAndType	#481:#487;//  appendAll:(Lscala/collection/Sequence;)Lscala/collection/mutable/StringBuilder;
const #489 = Method	#11.#488;	//  scala/collection/mutable/StringBuilder.appendAll:(Lscala/collection/Sequence;)Lscala/collection/mutable/StringBuilder;
const #490 = Asciz	(Lscala/collection/Sequence<Ljava/lang/Character;>;)Lscala/collection/mutable/StringBuilder;;
const #491 = InterfaceMethod	#254.#139;	//  scala/collection/generic/SequenceTemplate.length:()I
const #492 = Asciz	(Lscala/collection/mutable/StringBuilder;)Lscala/collection/mutable/StringBuilder;;
const #493 = Method	#11.#139;	//  scala/collection/mutable/StringBuilder.length:()I
const #494 = Method	#11.#320;	//  scala/collection/mutable/StringBuilder.toArray:()[C
const #495 = Asciz	sb;
const #496 = Asciz	s;
const #497 = Asciz	$plus;
const #498 = NameAndType	#145:#184;//  append:(C)Lscala/collection/mutable/StringBuilder;
const #499 = Method	#11.#498;	//  scala/collection/mutable/StringBuilder.append:(C)Lscala/collection/mutable/StringBuilder;
const #500 = Asciz	subSequence;
const #501 = Asciz	(II)Ljava/lang/CharSequence;;
const #502 = Asciz	substring;
const #503 = Asciz	(II)Ljava/lang/String;;
const #504 = NameAndType	#502:#503;//  substring:(II)Ljava/lang/String;
const #505 = Method	#11.#504;	//  scala/collection/mutable/StringBuilder.substring:(II)Ljava/lang/String;
const #506 = Asciz	setCharAt;
const #507 = NameAndType	#506:#178;//  setCharAt:(IC)V
const #508 = Method	#11.#507;	//  scala/collection/mutable/StringBuilder.setCharAt:(IC)V
const #509 = Asciz	c;
const #510 = Asciz	ch;
const #511 = Asciz	deleteCharAt;
const #512 = Asciz	charAt;
const #513 = NameAndType	#512:#155;//  charAt:(I)C
const #514 = Method	#11.#513;	//  scala/collection/mutable/StringBuilder.charAt:(I)C
const #515 = Asciz	array_$eq;
const #516 = Asciz	([C)V;
const #517 = NameAndType	#515:#516;//  array_$eq:([C)V
const #518 = Method	#11.#517;	//  scala/collection/mutable/StringBuilder.array_$eq:([C)V
const #519 = Asciz	newsize;
const #520 = Asciz	newar;
const #521 = Asciz	capacity_$eq;
const #522 = Asciz	capacity;
const #523 = Asciz	setLength;
const #524 = Asciz	scala/collection/mutable/StringBuilder$$anonfun$setLength$1;
const #525 = class	#524;	//  scala/collection/mutable/StringBuilder$$anonfun$setLength$1
const #526 = Asciz	(Lscala/collection/mutable/StringBuilder;I)V;
const #527 = NameAndType	#20:#526;//  "<init>":(Lscala/collection/mutable/StringBuilder;I)V
const #528 = Method	#525.#527;	//  scala/collection/mutable/StringBuilder$$anonfun$setLength$1."<init>":(Lscala/collection/mutable/StringBuilder;I)V
const #529 = Asciz	(ZLscala/Function0;)V;
const #530 = NameAndType	#131:#529;//  require:(ZLscala/Function0;)V
const #531 = Method	#126.#530;	//  scala/Predef$.require:(ZLscala/Function0;)V
const #532 = Asciz	n$1;
const #533 = Asciz	clear;
const #534 = NameAndType	#523:#376;//  setLength:(I)V
const #535 = Method	#11.#534;	//  scala/collection/mutable/StringBuilder.setLength:(I)V
const #536 = Asciz	length_$eq;
const #537 = int	16;
const #538 = NameAndType	#20:#21;//  "<init>":(ILjava/lang/String;)V
const #539 = Method	#11.#538;	//  scala/collection/mutable/StringBuilder."<init>":(ILjava/lang/String;)V
const #540 = Asciz	;
const #541 = String	#540;	//  
const #542 = Asciz	$plus$plus$eq;
const #543 = Asciz	(Lscala/collection/Traversable;)Lscala/collection/generic/Growable;;
const #544 = Asciz	(Lscala/collection/generic/Growable;Lscala/collection/Traversable;)Lscala/collection/generic/Growable;;
const #545 = NameAndType	#542:#544;//  $plus$plus$eq:(Lscala/collection/generic/Growable;Lscala/collection/Traversable;)Lscala/collection/generic/Growable;
const #546 = Method	#30.#545;	//  scala/collection/generic/Growable$class.$plus$plus$eq:(Lscala/collection/generic/Growable;Lscala/collection/Traversable;)Lscala/collection/generic/Growable;
const #547 = Asciz	iter;
const #548 = Asciz	Lscala/collection/Traversable;;
const #549 = Asciz	(Lscala/collection/Iterator;)Lscala/collection/generic/Growable;;
const #550 = Asciz	(Lscala/collection/generic/Growable;Lscala/collection/Iterator;)Lscala/collection/generic/Growable;;
const #551 = NameAndType	#542:#550;//  $plus$plus$eq:(Lscala/collection/generic/Growable;Lscala/collection/Iterator;)Lscala/collection/generic/Growable;
const #552 = Method	#30.#551;	//  scala/collection/generic/Growable$class.$plus$plus$eq:(Lscala/collection/generic/Growable;Lscala/collection/Iterator;)Lscala/collection/generic/Growable;
const #553 = Asciz	Lscala/collection/Iterator;;
const #554 = Asciz	(Ljava/lang/Object;Ljava/lang/Object;Lscala/collection/Sequence;)Lscala/collection/generic/Growable;;
const #555 = Asciz	(Lscala/collection/generic/Growable;Ljava/lang/Object;Ljava/lang/Object;Lscala/collection/Sequence;)Lscala/collection/generic/Growable;;
const #556 = NameAndType	#182:#555;//  $plus$eq:(Lscala/collection/generic/Growable;Ljava/lang/Object;Ljava/lang/Object;Lscala/collection/Sequence;)Lscala/collection/generic/Growable;
const #557 = Method	#30.#556;	//  scala/collection/generic/Growable$class.$plus$eq:(Lscala/collection/generic/Growable;Ljava/lang/Object;Ljava/lang/Object;Lscala/collection/Sequence;)Lscala/collection/generic/Growable;
const #558 = Asciz	elem1;
const #559 = Asciz	elem2;
const #560 = Asciz	elems;
const #561 = Asciz	mapResult;
const #562 = Asciz	(Lscala/Function1;)Lscala/collection/generic/Builder;;
const #563 = Asciz	(Lscala/collection/generic/Builder;Lscala/Function1;)Lscala/collection/generic/Builder;;
const #564 = NameAndType	#561:#563;//  mapResult:(Lscala/collection/generic/Builder;Lscala/Function1;)Lscala/collection/generic/Builder;
const #565 = Method	#36.#564;	//  scala/collection/generic/Builder$class.mapResult:(Lscala/collection/generic/Builder;Lscala/Function1;)Lscala/collection/generic/Builder;
const #566 = Asciz	f;
const #567 = Asciz	sizeHint;
const #568 = Asciz	(Lscala/collection/generic/Builder;I)V;
const #569 = NameAndType	#567:#568;//  sizeHint:(Lscala/collection/generic/Builder;I)V
const #570 = Method	#36.#569;	//  scala/collection/generic/Builder$class.sizeHint:(Lscala/collection/generic/Builder;I)V
const #571 = Asciz	size;
const #572 = Asciz	stringPrefix;
const #573 = Asciz	(Lscala/collection/generic/TraversableTemplate;)Ljava/lang/String;;
const #574 = NameAndType	#572:#573;//  stringPrefix:(Lscala/collection/generic/TraversableTemplate;)Ljava/lang/String;
const #575 = Method	#41.#574;	//  scala/collection/generic/TraversableTemplate$class.stringPrefix:(Lscala/collection/generic/TraversableTemplate;)Ljava/lang/String;
const #576 = Asciz	addString;
const #577 = Asciz	(Lscala/collection/generic/TraversableTemplate;Lscala/collection/mutable/StringBuilder;)Lscala/collection/mutable/StringBuilder;;
const #578 = NameAndType	#576:#577;//  addString:(Lscala/collection/generic/TraversableTemplate;Lscala/collection/mutable/StringBuilder;)Lscala/collection/mutable/StringBuilder;
const #579 = Method	#41.#578;	//  scala/collection/generic/TraversableTemplate$class.addString:(Lscala/collection/generic/TraversableTemplate;Lscala/collection/mutable/StringBuilder;)Lscala/collection/mutable/StringBuilder;
const #580 = Asciz	b;
const #581 = Asciz	(Lscala/collection/mutable/StringBuilder;Ljava/lang/String;)Lscala/collection/mutable/StringBuilder;;
const #582 = Asciz	(Lscala/collection/generic/TraversableTemplate;Lscala/collection/mutable/StringBuilder;Ljava/lang/String;)Lscala/collection/mutable/StringBuilder;;
const #583 = NameAndType	#576:#582;//  addString:(Lscala/collection/generic/TraversableTemplate;Lscala/collection/mutable/StringBuilder;Ljava/lang/String;)Lscala/collection/mutable/StringBuilder;
const #584 = Method	#41.#583;	//  scala/collection/generic/TraversableTemplate$class.addString:(Lscala/collection/generic/TraversableTemplate;Lscala/collection/mutable/StringBuilder;Ljava/lang/String;)Lscala/collection/mutable/StringBuilder;
const #585 = Asciz	sep;
const #586 = Asciz	(Lscala/collection/mutable/StringBuilder;Ljava/lang/String;Ljava/lang/String;Ljava/lang/String;)Lscala/collection/mutable/StringBuilder;;
const #587 = Asciz	(Lscala/collection/generic/TraversableTemplate;Lscala/collection/mutable/StringBuilder;Ljava/lang/String;Ljava/lang/String;Ljava/lang/String;)Lscala/collection/mutable/StringBuilder;;
const #588 = NameAndType	#576:#587;//  addString:(Lscala/collection/generic/TraversableTemplate;Lscala/collection/mutable/StringBuilder;Ljava/lang/String;Ljava/lang/String;Ljava/lang/String;)Lscala/collection/mutable/StringBuilder;
const #589 = Method	#41.#588;	//  scala/collection/generic/TraversableTemplate$class.addString:(Lscala/collection/generic/TraversableTemplate;Lscala/collection/mutable/StringBuilder;Ljava/lang/String;Ljava/lang/String;Ljava/lang/String;)Lscala/collection/mutable/StringBuilder;
const #590 = Asciz	mkString;
const #591 = NameAndType	#590:#573;//  mkString:(Lscala/collection/generic/TraversableTemplate;)Ljava/lang/String;
const #592 = Method	#41.#591;	//  scala/collection/generic/TraversableTemplate$class.mkString:(Lscala/collection/generic/TraversableTemplate;)Ljava/lang/String;
const #593 = Asciz	(Ljava/lang/String;)Ljava/lang/String;;
const #594 = Asciz	(Lscala/collection/generic/TraversableTemplate;Ljava/lang/String;)Ljava/lang/String;;
const #595 = NameAndType	#590:#594;//  mkString:(Lscala/collection/generic/TraversableTemplate;Ljava/lang/String;)Ljava/lang/String;
const #596 = Method	#41.#595;	//  scala/collection/generic/TraversableTemplate$class.mkString:(Lscala/collection/generic/TraversableTemplate;Ljava/lang/String;)Ljava/lang/String;
const #597 = Asciz	(Ljava/lang/String;Ljava/lang/String;Ljava/lang/String;)Ljava/lang/String;;
const #598 = Asciz	(Lscala/collection/generic/TraversableTemplate;Ljava/lang/String;Ljava/lang/String;Ljava/lang/String;)Ljava/lang/String;;
const #599 = NameAndType	#590:#598;//  mkString:(Lscala/collection/generic/TraversableTemplate;Ljava/lang/String;Ljava/lang/String;Ljava/lang/String;)Ljava/lang/String;
const #600 = Method	#41.#599;	//  scala/collection/generic/TraversableTemplate$class.mkString:(Lscala/collection/generic/TraversableTemplate;Ljava/lang/String;Ljava/lang/String;Ljava/lang/String;)Ljava/lang/String;
const #601 = Asciz	toSet;
const #602 = Asciz	()Lscala/collection/immutable/Set;;
const #603 = Asciz	(Lscala/collection/generic/TraversableTemplate;)Lscala/collection/immutable/Set;;
const #604 = NameAndType	#601:#603;//  toSet:(Lscala/collection/generic/TraversableTemplate;)Lscala/collection/immutable/Set;
const #605 = Method	#41.#604;	//  scala/collection/generic/TraversableTemplate$class.toSet:(Lscala/collection/generic/TraversableTemplate;)Lscala/collection/immutable/Set;
const #606 = Asciz	toList;
const #607 = Asciz	()Lscala/collection/immutable/List;;
const #608 = Asciz	(Lscala/collection/generic/TraversableTemplate;)Lscala/collection/immutable/List;;
const #609 = NameAndType	#606:#608;//  toList:(Lscala/collection/generic/TraversableTemplate;)Lscala/collection/immutable/List;
const #610 = Method	#41.#609;	//  scala/collection/generic/TraversableTemplate$class.toList:(Lscala/collection/generic/TraversableTemplate;)Lscala/collection/immutable/List;
const #611 = Asciz	(Lscala/collection/generic/TraversableTemplate;)Lscala/runtime/BoxedArray;;
const #612 = NameAndType	#319:#611;//  toArray:(Lscala/collection/generic/TraversableTemplate;)Lscala/runtime/BoxedArray;
const #613 = Method	#41.#612;	//  scala/collection/generic/TraversableTemplate$class.toArray:(Lscala/collection/generic/TraversableTemplate;)Lscala/runtime/BoxedArray;
const #614 = Asciz	copyToArray;
const #615 = Asciz	(Lscala/runtime/BoxedArray;I)V;
const #616 = Asciz	(Lscala/collection/generic/TraversableTemplate;Lscala/runtime/BoxedArray;I)V;
const #617 = NameAndType	#614:#616;//  copyToArray:(Lscala/collection/generic/TraversableTemplate;Lscala/runtime/BoxedArray;I)V
const #618 = Method	#41.#617;	//  scala/collection/generic/TraversableTemplate$class.copyToArray:(Lscala/collection/generic/TraversableTemplate;Lscala/runtime/BoxedArray;I)V
const #619 = Asciz	xs;
const #620 = Asciz	Lscala/runtime/BoxedArray;;
const #621 = Asciz	copyToBuffer;
const #622 = Asciz	(Lscala/collection/mutable/Buffer;)V;
const #623 = Asciz	(Lscala/collection/generic/TraversableTemplate;Lscala/collection/mutable/Buffer;)V;
const #624 = NameAndType	#621:#623;//  copyToBuffer:(Lscala/collection/generic/TraversableTemplate;Lscala/collection/mutable/Buffer;)V
const #625 = Method	#41.#624;	//  scala/collection/generic/TraversableTemplate$class.copyToBuffer:(Lscala/collection/generic/TraversableTemplate;Lscala/collection/mutable/Buffer;)V
const #626 = Asciz	dest;
const #627 = Asciz	Lscala/collection/mutable/Buffer;;
const #628 = Asciz	lastOption;
const #629 = Asciz	()Lscala/Option;;
const #630 = Asciz	(Lscala/collection/generic/TraversableTemplate;)Lscala/Option;;
const #631 = NameAndType	#628:#630;//  lastOption:(Lscala/collection/generic/TraversableTemplate;)Lscala/Option;
const #632 = Method	#41.#631;	//  scala/collection/generic/TraversableTemplate$class.lastOption:(Lscala/collection/generic/TraversableTemplate;)Lscala/Option;
const #633 = Asciz	headOption;
const #634 = NameAndType	#633:#630;//  headOption:(Lscala/collection/generic/TraversableTemplate;)Lscala/Option;
const #635 = Method	#41.#634;	//  scala/collection/generic/TraversableTemplate$class.headOption:(Lscala/collection/generic/TraversableTemplate;)Lscala/Option;
const #636 = Asciz	reduceRightOption;
const #637 = Asciz	(Lscala/Function2;)Lscala/Option;;
const #638 = Asciz	(Lscala/collection/generic/TraversableTemplate;Lscala/Function2;)Lscala/Option;;
const #639 = NameAndType	#636:#638;//  reduceRightOption:(Lscala/collection/generic/TraversableTemplate;Lscala/Function2;)Lscala/Option;
const #640 = Method	#41.#639;	//  scala/collection/generic/TraversableTemplate$class.reduceRightOption:(Lscala/collection/generic/TraversableTemplate;Lscala/Function2;)Lscala/Option;
const #641 = Asciz	op;
const #642 = Asciz	Lscala/Function2;;
const #643 = Asciz	reduceLeftOption;
const #644 = NameAndType	#643:#638;//  reduceLeftOption:(Lscala/collection/generic/TraversableTemplate;Lscala/Function2;)Lscala/Option;
const #645 = Method	#41.#644;	//  scala/collection/generic/TraversableTemplate$class.reduceLeftOption:(Lscala/collection/generic/TraversableTemplate;Lscala/Function2;)Lscala/Option;
const #646 = Asciz	$colon$bslash;
const #647 = Asciz	(Ljava/lang/Object;Lscala/Function2;)Ljava/lang/Object;;
const #648 = Asciz	(Lscala/collection/generic/TraversableTemplate;Ljava/lang/Object;Lscala/Function2;)Ljava/lang/Object;;
const #649 = NameAndType	#646:#648;//  $colon$bslash:(Lscala/collection/generic/TraversableTemplate;Ljava/lang/Object;Lscala/Function2;)Ljava/lang/Object;
const #650 = Method	#41.#649;	//  scala/collection/generic/TraversableTemplate$class.$colon$bslash:(Lscala/collection/generic/TraversableTemplate;Ljava/lang/Object;Lscala/Function2;)Ljava/lang/Object;
const #651 = Asciz	z;
const #652 = Asciz	$div$colon;
const #653 = NameAndType	#652:#648;//  $div$colon:(Lscala/collection/generic/TraversableTemplate;Ljava/lang/Object;Lscala/Function2;)Ljava/lang/Object;
const #654 = Method	#41.#653;	//  scala/collection/generic/TraversableTemplate$class.$div$colon:(Lscala/collection/generic/TraversableTemplate;Ljava/lang/Object;Lscala/Function2;)Ljava/lang/Object;
const #655 = Asciz	(Lscala/Function1;)I;
const #656 = Asciz	(Lscala/collection/generic/TraversableTemplate;Lscala/Function1;)I;
const #657 = NameAndType	#14:#656;//  count:(Lscala/collection/generic/TraversableTemplate;Lscala/Function1;)I
const #658 = Method	#41.#657;	//  scala/collection/generic/TraversableTemplate$class.count:(Lscala/collection/generic/TraversableTemplate;Lscala/Function1;)I
const #659 = Asciz	groupBy;
const #660 = Asciz	(Lscala/Function1;)Lscala/collection/Map;;
const #661 = Asciz	(Lscala/collection/generic/TraversableTemplate;Lscala/Function1;)Lscala/collection/Map;;
const #662 = NameAndType	#659:#661;//  groupBy:(Lscala/collection/generic/TraversableTemplate;Lscala/Function1;)Lscala/collection/Map;
const #663 = Method	#41.#662;	//  scala/collection/generic/TraversableTemplate$class.groupBy:(Lscala/collection/generic/TraversableTemplate;Lscala/Function1;)Lscala/collection/Map;
const #664 = Asciz	partition;
const #665 = Asciz	(Lscala/Function1;)Lscala/Tuple2;;
const #666 = Asciz	(Lscala/collection/generic/TraversableTemplate;Lscala/Function1;)Lscala/Tuple2;;
const #667 = NameAndType	#664:#666;//  partition:(Lscala/collection/generic/TraversableTemplate;Lscala/Function1;)Lscala/Tuple2;
const #668 = Method	#41.#667;	//  scala/collection/generic/TraversableTemplate$class.partition:(Lscala/collection/generic/TraversableTemplate;Lscala/Function1;)Lscala/Tuple2;
const #669 = Asciz	remove;
const #670 = Asciz	(Lscala/collection/generic/TraversableTemplate;Lscala/Function1;)Lscala/collection/generic/TraversableTemplate;;
const #671 = NameAndType	#669:#670;//  remove:(Lscala/collection/generic/TraversableTemplate;Lscala/Function1;)Lscala/collection/generic/TraversableTemplate;
const #672 = Method	#41.#671;	//  scala/collection/generic/TraversableTemplate$class.remove:(Lscala/collection/generic/TraversableTemplate;Lscala/Function1;)Lscala/collection/generic/TraversableTemplate;
const #673 = Asciz	filterNot;
const #674 = NameAndType	#673:#670;//  filterNot:(Lscala/collection/generic/TraversableTemplate;Lscala/Function1;)Lscala/collection/generic/TraversableTemplate;
const #675 = Method	#41.#674;	//  scala/collection/generic/TraversableTemplate$class.filterNot:(Lscala/collection/generic/TraversableTemplate;Lscala/Function1;)Lscala/collection/generic/TraversableTemplate;
const #676 = Asciz	filterMap;
const #677 = Asciz	(Lscala/PartialFunction;Lscala/collection/generic/BuilderFactory;)Ljava/lang/Object;;
const #678 = Asciz	(Lscala/collection/generic/TraversableTemplate;Lscala/PartialFunction;Lscala/collection/generic/BuilderFactory;)Ljava/lang/Object;;
const #679 = NameAndType	#676:#678;//  filterMap:(Lscala/collection/generic/TraversableTemplate;Lscala/PartialFunction;Lscala/collection/generic/BuilderFactory;)Ljava/lang/Object;
const #680 = Method	#41.#679;	//  scala/collection/generic/TraversableTemplate$class.filterMap:(Lscala/collection/generic/TraversableTemplate;Lscala/PartialFunction;Lscala/collection/generic/BuilderFactory;)Ljava/lang/Object;
const #681 = Asciz	pf;
const #682 = Asciz	Lscala/PartialFunction;;
const #683 = Asciz	bf;
const #684 = Asciz	Lscala/collection/generic/BuilderFactory;;
const #685 = Asciz	filter;
const #686 = NameAndType	#685:#670;//  filter:(Lscala/collection/generic/TraversableTemplate;Lscala/Function1;)Lscala/collection/generic/TraversableTemplate;
const #687 = Method	#41.#686;	//  scala/collection/generic/TraversableTemplate$class.filter:(Lscala/collection/generic/TraversableTemplate;Lscala/Function1;)Lscala/collection/generic/TraversableTemplate;
const #688 = Asciz	flatMap;
const #689 = Asciz	(Lscala/Function1;Lscala/collection/generic/BuilderFactory;)Ljava/lang/Object;;
const #690 = Asciz	(Lscala/collection/generic/TraversableTemplate;Lscala/Function1;Lscala/collection/generic/BuilderFactory;)Ljava/lang/Object;;
const #691 = NameAndType	#688:#690;//  flatMap:(Lscala/collection/generic/TraversableTemplate;Lscala/Function1;Lscala/collection/generic/BuilderFactory;)Ljava/lang/Object;
const #692 = Method	#41.#691;	//  scala/collection/generic/TraversableTemplate$class.flatMap:(Lscala/collection/generic/TraversableTemplate;Lscala/Function1;Lscala/collection/generic/BuilderFactory;)Ljava/lang/Object;
const #693 = Asciz	map;
const #694 = NameAndType	#693:#690;//  map:(Lscala/collection/generic/TraversableTemplate;Lscala/Function1;Lscala/collection/generic/BuilderFactory;)Ljava/lang/Object;
const #695 = Method	#41.#694;	//  scala/collection/generic/TraversableTemplate$class.map:(Lscala/collection/generic/TraversableTemplate;Lscala/Function1;Lscala/collection/generic/BuilderFactory;)Ljava/lang/Object;
const #696 = Asciz	$plus$plus;
const #697 = Asciz	(Lscala/collection/Iterator;Lscala/collection/generic/BuilderFactory;)Ljava/lang/Object;;
const #698 = Asciz	(Lscala/collection/generic/TraversableTemplate;Lscala/collection/Iterator;Lscala/collection/generic/BuilderFactory;)Ljava/lang/Object;;
const #699 = NameAndType	#696:#698;//  $plus$plus:(Lscala/collection/generic/TraversableTemplate;Lscala/collection/Iterator;Lscala/collection/generic/BuilderFactory;)Ljava/lang/Object;
const #700 = Method	#41.#699;	//  scala/collection/generic/TraversableTemplate$class.$plus$plus:(Lscala/collection/generic/TraversableTemplate;Lscala/collection/Iterator;Lscala/collection/generic/BuilderFactory;)Ljava/lang/Object;
const #701 = Asciz	that;
const #702 = Asciz	(Lscala/collection/Traversable;Lscala/collection/generic/BuilderFactory;)Ljava/lang/Object;;
const #703 = Asciz	(Lscala/collection/generic/TraversableTemplate;Lscala/collection/Traversable;Lscala/collection/generic/BuilderFactory;)Ljava/lang/Object;;
const #704 = NameAndType	#696:#703;//  $plus$plus:(Lscala/collection/generic/TraversableTemplate;Lscala/collection/Traversable;Lscala/collection/generic/BuilderFactory;)Ljava/lang/Object;
const #705 = Method	#41.#704;	//  scala/collection/generic/TraversableTemplate$class.$plus$plus:(Lscala/collection/generic/TraversableTemplate;Lscala/collection/Traversable;Lscala/collection/generic/BuilderFactory;)Ljava/lang/Object;
const #706 = Asciz	hasDefiniteSize;
const #707 = Asciz	()Z;
const #708 = Asciz	(Lscala/collection/generic/TraversableTemplate;)Z;
const #709 = NameAndType	#706:#708;//  hasDefiniteSize:(Lscala/collection/generic/TraversableTemplate;)Z
const #710 = Method	#41.#709;	//  scala/collection/generic/TraversableTemplate$class.hasDefiniteSize:(Lscala/collection/generic/TraversableTemplate;)Z
const #711 = Asciz	nonEmpty;
const #712 = NameAndType	#711:#708;//  nonEmpty:(Lscala/collection/generic/TraversableTemplate;)Z
const #713 = Method	#41.#712;	//  scala/collection/generic/TraversableTemplate$class.nonEmpty:(Lscala/collection/generic/TraversableTemplate;)Z
const #714 = Asciz	thisCollection;
const #715 = Asciz	(Lscala/collection/generic/TraversableTemplate;)Lscala/collection/generic/TraversableTemplate;;
const #716 = NameAndType	#714:#715;//  thisCollection:(Lscala/collection/generic/TraversableTemplate;)Lscala/collection/generic/TraversableTemplate;
const #717 = Method	#41.#716;	//  scala/collection/generic/TraversableTemplate$class.thisCollection:(Lscala/collection/generic/TraversableTemplate;)Lscala/collection/generic/TraversableTemplate;
const #718 = Asciz	transpose;
const #719 = Asciz	(Lscala/Function1;)Lscala/collection/Traversable;;
const #720 = Asciz	(Lscala/collection/generic/TraversableClass;Lscala/Function1;)Lscala/collection/Traversable;;
const #721 = NameAndType	#718:#720;//  transpose:(Lscala/collection/generic/TraversableClass;Lscala/Function1;)Lscala/collection/Traversable;
const #722 = Method	#46.#721;	//  scala/collection/generic/TraversableClass$class.transpose:(Lscala/collection/generic/TraversableClass;Lscala/Function1;)Lscala/collection/Traversable;
const #723 = Asciz	toTraversable;
const #724 = Asciz	flatten;
const #725 = NameAndType	#724:#720;//  flatten:(Lscala/collection/generic/TraversableClass;Lscala/Function1;)Lscala/collection/Traversable;
const #726 = Method	#46.#725;	//  scala/collection/generic/TraversableClass$class.flatten:(Lscala/collection/generic/TraversableClass;Lscala/Function1;)Lscala/collection/Traversable;
const #727 = Asciz	unzip;
const #728 = Asciz	(Lscala/collection/generic/TraversableClass;Lscala/Function1;)Lscala/Tuple2;;
const #729 = NameAndType	#727:#728;//  unzip:(Lscala/collection/generic/TraversableClass;Lscala/Function1;)Lscala/Tuple2;
const #730 = Method	#46.#729;	//  scala/collection/generic/TraversableClass$class.unzip:(Lscala/collection/generic/TraversableClass;Lscala/Function1;)Lscala/Tuple2;
const #731 = Asciz	toPair;
const #732 = Asciz	genericBuilder;
const #733 = Asciz	()Lscala/collection/generic/Builder;;
const #734 = Asciz	(Lscala/collection/generic/TraversableClass;)Lscala/collection/generic/Builder;;
const #735 = NameAndType	#732:#734;//  genericBuilder:(Lscala/collection/generic/TraversableClass;)Lscala/collection/generic/Builder;
const #736 = Method	#46.#735;	//  scala/collection/generic/TraversableClass$class.genericBuilder:(Lscala/collection/generic/TraversableClass;)Lscala/collection/generic/Builder;
const #737 = Asciz	newBuilder;
const #738 = NameAndType	#737:#734;//  newBuilder:(Lscala/collection/generic/TraversableClass;)Lscala/collection/generic/Builder;
const #739 = Method	#46.#738;	//  scala/collection/generic/TraversableClass$class.newBuilder:(Lscala/collection/generic/TraversableClass;)Lscala/collection/generic/Builder;
const #740 = Asciz	toSeq;
const #741 = Asciz	()Lscala/collection/Sequence;;
const #742 = Asciz	(Lscala/collection/generic/IterableTemplate;)Lscala/collection/Sequence;;
const #743 = NameAndType	#740:#742;//  toSeq:(Lscala/collection/generic/IterableTemplate;)Lscala/collection/Sequence;
const #744 = Method	#61.#743;	//  scala/collection/generic/IterableTemplate$class.toSeq:(Lscala/collection/generic/IterableTemplate;)Lscala/collection/Sequence;
const #745 = Asciz	firstOption;
const #746 = Asciz	(Lscala/collection/generic/IterableTemplate;)Lscala/Option;;
const #747 = NameAndType	#745:#746;//  firstOption:(Lscala/collection/generic/IterableTemplate;)Lscala/Option;
const #748 = Method	#61.#747;	//  scala/collection/generic/IterableTemplate$class.firstOption:(Lscala/collection/generic/IterableTemplate;)Lscala/Option;
const #749 = Asciz	first;
const #750 = Asciz	(Lscala/collection/generic/IterableTemplate;)Ljava/lang/Object;;
const #751 = NameAndType	#749:#750;//  first:(Lscala/collection/generic/IterableTemplate;)Ljava/lang/Object;
const #752 = Method	#61.#751;	//  scala/collection/generic/IterableTemplate$class.first:(Lscala/collection/generic/IterableTemplate;)Ljava/lang/Object;
const #753 = Asciz	toStream;
const #754 = Asciz	()Lscala/collection/immutable/Stream;;
const #755 = Asciz	(Lscala/collection/generic/IterableTemplate;)Lscala/collection/immutable/Stream;;
const #756 = NameAndType	#753:#755;//  toStream:(Lscala/collection/generic/IterableTemplate;)Lscala/collection/immutable/Stream;
const #757 = Method	#61.#756;	//  scala/collection/generic/IterableTemplate$class.toStream:(Lscala/collection/generic/IterableTemplate;)Lscala/collection/immutable/Stream;
const #758 = Asciz	toIterable;
const #759 = Asciz	()Lscala/collection/Iterable;;
const #760 = Asciz	(Lscala/collection/generic/IterableTemplate;)Lscala/collection/Iterable;;
const #761 = NameAndType	#758:#760;//  toIterable:(Lscala/collection/generic/IterableTemplate;)Lscala/collection/Iterable;
const #762 = Method	#61.#761;	//  scala/collection/generic/IterableTemplate$class.toIterable:(Lscala/collection/generic/IterableTemplate;)Lscala/collection/Iterable;
const #763 = Asciz	elements;
const #764 = Asciz	()Lscala/collection/Iterator;;
const #765 = Asciz	(Lscala/collection/generic/IterableTemplate;)Lscala/collection/Iterator;;
const #766 = NameAndType	#763:#765;//  elements:(Lscala/collection/generic/IterableTemplate;)Lscala/collection/Iterator;
const #767 = Method	#61.#766;	//  scala/collection/generic/IterableTemplate$class.elements:(Lscala/collection/generic/IterableTemplate;)Lscala/collection/Iterator;
const #768 = Asciz	compose;
const #769 = Asciz	(Lscala/Function1;Lscala/Function1;)Lscala/Function1;;
const #770 = NameAndType	#768:#769;//  compose:(Lscala/Function1;Lscala/Function1;)Lscala/Function1;
const #771 = Method	#76.#770;	//  scala/Function1$class.compose:(Lscala/Function1;Lscala/Function1;)Lscala/Function1;
const #772 = Asciz	(Lscala/PartialFunction;Lscala/Function1;)Lscala/PartialFunction;;
const #773 = NameAndType	#259:#772;//  andThen:(Lscala/PartialFunction;Lscala/Function1;)Lscala/PartialFunction;
const #774 = Method	#81.#773;	//  scala/PartialFunction$class.andThen:(Lscala/PartialFunction;Lscala/Function1;)Lscala/PartialFunction;
const #775 = Asciz	k;
const #776 = Asciz	orElse;
const #777 = Asciz	(Lscala/PartialFunction;)Lscala/PartialFunction;;
const #778 = Asciz	(Lscala/PartialFunction;Lscala/PartialFunction;)Lscala/PartialFunction;;
const #779 = NameAndType	#776:#778;//  orElse:(Lscala/PartialFunction;Lscala/PartialFunction;)Lscala/PartialFunction;
const #780 = Method	#81.#779;	//  scala/PartialFunction$class.orElse:(Lscala/PartialFunction;Lscala/PartialFunction;)Lscala/PartialFunction;
const #781 = Asciz	projection;
const #782 = Asciz	(Lscala/collection/generic/SequenceTemplate;)Ljava/lang/Object;;
const #783 = NameAndType	#781:#782;//  projection:(Lscala/collection/generic/SequenceTemplate;)Ljava/lang/Object;
const #784 = Method	#86.#783;	//  scala/collection/generic/SequenceTemplate$class.projection:(Lscala/collection/generic/SequenceTemplate;)Ljava/lang/Object;
const #785 = Asciz	containsSlice;
const #786 = Asciz	(Lscala/collection/Sequence;)Z;
const #787 = Asciz	(Lscala/collection/generic/SequenceTemplate;Lscala/collection/Sequence;)Z;
const #788 = NameAndType	#785:#787;//  containsSlice:(Lscala/collection/generic/SequenceTemplate;Lscala/collection/Sequence;)Z
const #789 = Method	#86.#788;	//  scala/collection/generic/SequenceTemplate$class.containsSlice:(Lscala/collection/generic/SequenceTemplate;Lscala/collection/Sequence;)Z
const #790 = Asciz	equalsWith;
const #791 = Asciz	(Lscala/collection/Sequence;Lscala/Function2;)Z;
const #792 = Asciz	(Lscala/collection/generic/SequenceTemplate;Lscala/collection/Sequence;Lscala/Function2;)Z;
const #793 = NameAndType	#790:#792;//  equalsWith:(Lscala/collection/generic/SequenceTemplate;Lscala/collection/Sequence;Lscala/Function2;)Z
const #794 = Method	#86.#793;	//  scala/collection/generic/SequenceTemplate$class.equalsWith:(Lscala/collection/generic/SequenceTemplate;Lscala/collection/Sequence;Lscala/Function2;)Z
const #795 = Asciz	(I)Lscala/collection/Sequence;;
const #796 = Asciz	(Lscala/collection/generic/SequenceTemplate;I)Lscala/collection/Sequence;;
[...]
  Code:
   Stack=2, Locals=2, Args_size=2
   0:	aload_0
   1:	iload_1
   2:	invokestatic	#935; //Method scala/collection/generic/VectorTemplate$class.lengthCompare:(Lscala/collection/generic/VectorTemplate;I)I
   5:	ireturn
  LineNumberTable: 
   line 30: 0

  LocalVariableTable: 
   Start  Length  Slot  Name   Signature
   0      6      0    this       Lscala/collection/mutable/StringBuilder;
   0      6      1    len       I


public void copyToArray(scala.runtime.BoxedArray, int, int);
  Code:
   Stack=4, Locals=4, Args_size=4
   0:	aload_0
   1:	aload_1
   2:	iload_2
   3:	iload_3
   4:	invokestatic	#939; //Method scala/collection/generic/VectorTemplate$class.copyToArray:(Lscala/collection/generic/VectorTemplate;Lscala/runtime/BoxedArray;II)V
   7:	return
  LineNumberTable: 
   line 30: 0

  LocalVariableTable: 
   Start  Length  Slot  Name   Signature
   0      8      0    this       Lscala/collection/mutable/StringBuilder;
   0      8      1    xs       Lscala/runtime/BoxedArray;
   0      8      2    start       I
   0      8      3    len       I


public boolean sameElements(scala.collection.Iterable);
  Code:
   Stack=2, Locals=2, Args_size=2
   0:	aload_0
   1:	aload_1
   2:	invokestatic	#944; //Method scala/collection/generic/VectorTemplate$class.sameElements:(Lscala/collection/generic/VectorTemplate;Lscala/collection/Iterable;)Z
   5:	ireturn
  LineNumberTable: 
   line 30: 0

  LocalVariableTable: 
   Start  Length  Slot  Name   Signature
   0      6      0    this       Lscala/collection/mutable/StringBuilder;
   0      6      1    that       Lscala/collection/Iterable;


public scala.Tuple2 span(scala.Function1);
  Code:
   Stack=2, Locals=2, Args_size=2
   0:	aload_0
   1:	aload_1
   2:	invokestatic	#949; //Method scala/collection/generic/VectorTemplate$class.span:(Lscala/collection/generic/VectorTemplate;Lscala/Function1;)Lscala/Tuple2;
   5:	areturn
  LineNumberTable: 
   line 30: 0

  LocalVariableTable: 
   Start  Length  Slot  Name   Signature
   0      6      0    this       Lscala/collection/mutable/StringBuilder;
   0      6      1    p       Lscala/Function1;


public scala.collection.generic.VectorTemplate dropWhile(scala.Function1);
  Code:
   Stack=2, Locals=2, Args_size=2
   0:	aload_0
   1:	aload_1
   2:	invokestatic	#952; //Method scala/collection/generic/VectorTemplate$class.dropWhile:(Lscala/collection/generic/VectorTemplate;Lscala/Function1;)Lscala/collection/generic/VectorTemplate;
   5:	areturn
  LineNumberTable: 
   line 30: 0

  LocalVariableTable: 
   Start  Length  Slot  Name   Signature
   0      6      0    this       Lscala/collection/mutable/StringBuilder;
   0      6      1    p       Lscala/Function1;


public scala.collection.generic.VectorTemplate takeWhile(scala.Function1);
  Code:
   Stack=2, Locals=2, Args_size=2
   0:	aload_0
   1:	aload_1
   2:	invokestatic	#954; //Method scala/collection/generic/VectorTemplate$class.takeWhile:(Lscala/collection/generic/VectorTemplate;Lscala/Function1;)Lscala/collection/generic/VectorTemplate;
   5:	areturn
  LineNumberTable: 
   line 30: 0

  LocalVariableTable: 
   Start  Length  Slot  Name   Signature
   0      6      0    this       Lscala/collection/mutable/StringBuilder;
   0      6      1    p       Lscala/Function1;


public scala.Tuple2 splitAt(int);
  Code:
   Stack=2, Locals=2, Args_size=2
   0:	aload_0
   1:	iload_1
   2:	invokestatic	#959; //Method scala/collection/generic/VectorTemplate$class.splitAt:(Lscala/collection/generic/VectorTemplate;I)Lscala/Tuple2;
   5:	areturn
  LineNumberTable: 
   line 30: 0

  LocalVariableTable: 
   Start  Length  Slot  Name   Signature
   0      6      0    this       Lscala/collection/mutable/StringBuilder;
   0      6      1    n       I


public scala.collection.generic.VectorTemplate dropRight(int);
  Code:
   Stack=2, Locals=2, Args_size=2
   0:	aload_0
   1:	iload_1
   2:	invokestatic	#962; //Method scala/collection/generic/VectorTemplate$class.dropRight:(Lscala/collection/generic/VectorTemplate;I)Lscala/collection/generic/VectorTemplate;
   5:	areturn
  LineNumberTable: 
   line 30: 0

  LocalVariableTable: 
   Start  Length  Slot  Name   Signature
   0      6      0    this       Lscala/collection/mutable/StringBuilder;
   0      6      1    n       I


public scala.collection.generic.VectorTemplate takeRight(int);
  Code:
   Stack=2, Locals=2, Args_size=2
   0:	aload_0
   1:	iload_1
   2:	invokestatic	#964; //Method scala/collection/generic/VectorTemplate$class.takeRight:(Lscala/collection/generic/VectorTemplate;I)Lscala/collection/generic/VectorTemplate;
   5:	areturn
  LineNumberTable: 
   line 30: 0

  LocalVariableTable: 
   Start  Length  Slot  Name   Signature
   0      6      0    this       Lscala/collection/mutable/StringBuilder;
   0      6      1    n       I


public scala.collection.generic.VectorTemplate drop(int);
  Code:
   Stack=2, Locals=2, Args_size=2
   0:	aload_0
   1:	iload_1
   2:	invokestatic	#966; //Method scala/collection/generic/VectorTemplate$class.drop:(Lscala/collection/generic/VectorTemplate;I)Lscala/collection/generic/VectorTemplate;
   5:	areturn
  LineNumberTable: 
   line 30: 0

  LocalVariableTable: 
   Start  Length  Slot  Name   Signature
   0      6      0    this       Lscala/collection/mutable/StringBuilder;
   0      6      1    n       I


public scala.collection.generic.VectorTemplate take(int);
  Code:
   Stack=2, Locals=2, Args_size=2
   0:	aload_0
   1:	iload_1
   2:	invokestatic	#968; //Method scala/collection/generic/VectorTemplate$class.take:(Lscala/collection/generic/VectorTemplate;I)Lscala/collection/generic/VectorTemplate;
   5:	areturn
  LineNumberTable: 
   line 30: 0

  LocalVariableTable: 
   Start  Length  Slot  Name   Signature
   0      6      0    this       Lscala/collection/mutable/StringBuilder;
   0      6      1    n       I


public scala.collection.generic.VectorTemplate init();
  Code:
   Stack=1, Locals=1, Args_size=1
   0:	aload_0
   1:	invokestatic	#971; //Method scala/collection/generic/VectorTemplate$class.init:(Lscala/collection/generic/VectorTemplate;)Lscala/collection/generic/VectorTemplate;
   4:	areturn
  LineNumberTable: 
   line 30: 0


public java.lang.Object last();
  Code:
   Stack=1, Locals=1, Args_size=1
   0:	aload_0
   1:	invokestatic	#975; //Method scala/collection/generic/VectorTemplate$class.last:(Lscala/collection/generic/VectorTemplate;)Ljava/lang/Object;
   4:	areturn
  LineNumberTable: 
   line 30: 0


public scala.collection.generic.VectorTemplate tail();
  Code:
   Stack=1, Locals=1, Args_size=1
   0:	aload_0
   1:	invokestatic	#977; //Method scala/collection/generic/VectorTemplate$class.tail:(Lscala/collection/generic/VectorTemplate;)Lscala/collection/generic/VectorTemplate;
   4:	areturn
  LineNumberTable: 
   line 30: 0


public java.lang.Object head();
  Code:
   Stack=1, Locals=1, Args_size=1
   0:	aload_0
   1:	invokestatic	#980; //Method scala/collection/generic/VectorTemplate$class.head:(Lscala/collection/generic/VectorTemplate;)Ljava/lang/Object;
   4:	areturn
  LineNumberTable: 
   line 30: 0


public scala.collection.generic.VectorTemplate slice(int, int);
  Code:
   Stack=3, Locals=3, Args_size=3
   0:	aload_0
   1:	iload_1
   2:	iload_2
   3:	invokestatic	#983; //Method scala/collection/generic/VectorTemplate$class.slice:(Lscala/collection/generic/VectorTemplate;II)Lscala/collection/generic/VectorTemplate;
   6:	areturn
  LineNumberTable: 
   line 30: 0

  LocalVariableTable: 
   Start  Length  Slot  Name   Signature
   0      7      0    this       Lscala/collection/mutable/StringBuilder;
   0      7      1    from       I
   0      7      2    until       I


public java.lang.Object zipWithIndex(scala.collection.generic.BuilderFactory);
  Code:
   Stack=2, Locals=2, Args_size=2
   0:	aload_0
   1:	aload_1
   2:	invokestatic	#988; //Method scala/collection/generic/VectorTemplate$class.zipWithIndex:(Lscala/collection/generic/VectorTemplate;Lscala/collection/generic/BuilderFactory;)Ljava/lang/Object;
   5:	areturn
  LineNumberTable: 
   line 30: 0

  LocalVariableTable: 
   Start  Length  Slot  Name   Signature
   0      6      0    this       Lscala/collection/mutable/StringBuilder;
   0      6      1    bf       Lscala/collection/generic/BuilderFactory;


public java.lang.Object zip(scala.collection.Sequence, scala.collection.generic.BuilderFactory);
  Code:
   Stack=3, Locals=3, Args_size=3
   0:	aload_0
   1:	aload_1
   2:	aload_2
   3:	invokestatic	#992; //Method scala/collection/generic/VectorTemplate$class.zip:(Lscala/collection/generic/VectorTemplate;Lscala/collection/Sequence;Lscala/collection/generic/BuilderFactory;)Ljava/lang/Object;
   6:	areturn
  LineNumberTable: 
   line 30: 0

  LocalVariableTable: 
   Start  Length  Slot  Name   Signature
   0      7      0    this       Lscala/collection/mutable/StringBuilder;
   0      7      1    that       Lscala/collection/Sequence;
   0      7      2    bf       Lscala/collection/generic/BuilderFactory;


public java.lang.Object reduceRight(scala.Function2);
  Code:
   Stack=2, Locals=2, Args_size=2
   0:	aload_0
   1:	aload_1
   2:	invokestatic	#997; //Method scala/collection/generic/VectorTemplate$class.reduceRight:(Lscala/collection/generic/VectorTemplate;Lscala/Function2;)Ljava/lang/Object;
   5:	areturn
  LineNumberTable: 
   line 30: 0

  LocalVariableTable: 
   Start  Length  Slot  Name   Signature
   0      6      0    this       Lscala/collection/mutable/StringBuilder;
   0      6      1    op       Lscala/Function2;


public java.lang.Object reduceLeft(scala.Function2);
  Code:
   Stack=2, Locals=2, Args_size=2
   0:	aload_0
   1:	aload_1
   2:	invokestatic	#1000; //Method scala/collection/generic/VectorTemplate$class.reduceLeft:(Lscala/collection/generic/VectorTemplate;Lscala/Function2;)Ljava/lang/Object;
   5:	areturn
  LineNumberTable: 
   line 30: 0

  LocalVariableTable: 
   Start  Length  Slot  Name   Signature
   0      6      0    this       Lscala/collection/mutable/StringBuilder;
   0      6      1    op       Lscala/Function2;


public java.lang.Object foldRight(java.lang.Object, scala.Function2);
  Code:
   Stack=3, Locals=3, Args_size=3
   0:	aload_0
   1:	aload_1
   2:	aload_2
   3:	invokestatic	#1004; //Method scala/collection/generic/VectorTemplate$class.foldRight:(Lscala/collection/generic/VectorTemplate;Ljava/lang/Object;Lscala/Function2;)Ljava/lang/Object;
   6:	areturn
  LineNumberTable: 
   line 30: 0

  LocalVariableTable: 
   Start  Length  Slot  Name   Signature
   0      7      0    this       Lscala/collection/mutable/StringBuilder;
   0      7      1    z       Ljava/lang/Object;
   0      7      2    op       Lscala/Function2;


public java.lang.Object foldLeft(java.lang.Object, scala.Function2);
  Code:
   Stack=3, Locals=3, Args_size=3
   0:	aload_0
   1:	aload_1
   2:	aload_2
   3:	invokestatic	#1007; //Method scala/collection/generic/VectorTemplate$class.foldLeft:(Lscala/collection/generic/VectorTemplate;Ljava/lang/Object;Lscala/Function2;)Ljava/lang/Object;
   6:	areturn
  LineNumberTable: 
   line 30: 0

  LocalVariableTable: 
   Start  Length  Slot  Name   Signature
   0      7      0    this       Lscala/collection/mutable/StringBuilder;
   0      7      1    z       Ljava/lang/Object;
   0      7      2    op       Lscala/Function2;


public scala.Option find(scala.Function1);
  Code:
   Stack=2, Locals=2, Args_size=2
   0:	aload_0
   1:	aload_1
   2:	invokestatic	#1012; //Method scala/collection/generic/VectorTemplate$class.find:(Lscala/collection/generic/VectorTemplate;Lscala/Function1;)Lscala/Option;
   5:	areturn
  LineNumberTable: 
   line 30: 0

  LocalVariableTable: 
   Start  Length  Slot  Name   Signature
   0      6      0    this       Lscala/collection/mutable/StringBuilder;
   0      6      1    p       Lscala/Function1;


public boolean exists(scala.Function1);
  Code:
   Stack=2, Locals=2, Args_size=2
   0:	aload_0
   1:	aload_1
   2:	invokestatic	#1017; //Method scala/collection/generic/VectorTemplate$class.exists:(Lscala/collection/generic/VectorTemplate;Lscala/Function1;)Z
   5:	ireturn
  LineNumberTable: 
   line 30: 0

  LocalVariableTable: 
   Start  Length  Slot  Name   Signature
   0      6      0    this       Lscala/collection/mutable/StringBuilder;
   0      6      1    p       Lscala/Function1;


public boolean forall(scala.Function1);
  Code:
   Stack=2, Locals=2, Args_size=2
   0:	aload_0
   1:	aload_1
   2:	invokestatic	#1020; //Method scala/collection/generic/VectorTemplate$class.forall:(Lscala/collection/generic/VectorTemplate;Lscala/Function1;)Z
   5:	ireturn
  LineNumberTable: 
   line 30: 0

  LocalVariableTable: 
   Start  Length  Slot  Name   Signature
   0      6      0    this       Lscala/collection/mutable/StringBuilder;
   0      6      1    p       Lscala/Function1;


public void foreach(scala.Function1);
  Code:
   Stack=2, Locals=2, Args_size=2
   0:	aload_0
   1:	aload_1
   2:	invokestatic	#1024; //Method scala/collection/generic/VectorTemplate$class.foreach:(Lscala/collection/generic/VectorTemplate;Lscala/Function1;)V
   5:	return
  LineNumberTable: 
   line 30: 0

  LocalVariableTable: 
   Start  Length  Slot  Name   Signature
   0      6      0    this       Lscala/collection/mutable/StringBuilder;
   0      6      1    f       Lscala/Function1;


public boolean isEmpty();
  Code:
   Stack=1, Locals=1, Args_size=1
   0:	aload_0
   1:	invokestatic	#1028; //Method scala/collection/generic/VectorTemplate$class.isEmpty:(Lscala/collection/generic/VectorTemplate;)Z
   4:	ireturn
  LineNumberTable: 
   line 30: 0


public scala.collection.Iterator iterator();
  Code:
   Stack=1, Locals=1, Args_size=1
   0:	aload_0
   1:	invokestatic	#1031; //Method scala/collection/generic/VectorTemplate$class.iterator:(Lscala/collection/generic/VectorTemplate;)Lscala/collection/Iterator;
   4:	areturn
  LineNumberTable: 
   line 30: 0


public final boolean scala$collection$generic$VectorTemplate$$super$equals(java.lang.Object);
  Code:
   Stack=2, Locals=2, Args_size=2
   0:	aload_0
   1:	aload_1
   2:	invokestatic	#1034; //Method scala/collection/generic/SequenceTemplate$class.equals:(Lscala/collection/generic/SequenceTemplate;Ljava/lang/Object;)Z
   5:	ireturn
  LineNumberTable: 
   line 30: 0

  LocalVariableTable: 
   Start  Length  Slot  Name   Signature
   0      6      0    this       Lscala/collection/mutable/StringBuilder;
   0      6      1    that       Ljava/lang/Object;


public final boolean scala$collection$generic$VectorTemplate$$super$endsWith(scala.collection.Sequence);
  Code:
   Stack=2, Locals=2, Args_size=2
   0:	aload_0
   1:	aload_1
   2:	invokestatic	#1037; //Method scala/collection/generic/SequenceTemplate$class.endsWith:(Lscala/collection/generic/SequenceTemplate;Lscala/collection/Sequence;)Z
   5:	ireturn
  LineNumberTable: 
   line 30: 0

  LocalVariableTable: 
   Start  Length  Slot  Name   Signature
   0      6      0    this       Lscala/collection/mutable/StringBuilder;
   0      6      1    that       Lscala/collection/Sequence;


public final boolean scala$collection$generic$VectorTemplate$$super$sameElements(scala.collection.Iterable);
  Code:
   Stack=2, Locals=2, Args_size=2
   0:	aload_0
   1:	aload_1
   2:	invokestatic	#1041; //Method scala/collection/generic/IterableTemplate$class.sameElements:(Lscala/collection/generic/IterableTemplate;Lscala/collection/Iterable;)Z
   5:	ireturn
  LineNumberTable: 
   line 30: 0

  LocalVariableTable: 
   Start  Length  Slot  Name   Signature
   0      6      0    this       Lscala/collection/mutable/StringBuilder;
   0      6      1    that       Lscala/collection/Iterable;


public final scala.collection.generic.VectorTemplate scala$collection$generic$VectorTemplate$$super$init();
  Code:
   Stack=1, Locals=1, Args_size=1
   0:	aload_0
   1:	invokestatic	#1044; //Method scala/collection/generic/TraversableTemplate$class.init:(Lscala/collection/generic/TraversableTemplate;)Lscala/collection/generic/TraversableTemplate;
   4:	checkcast	#214; //class scala/collection/generic/VectorTemplate
   7:	areturn
  LineNumberTable: 
   line 30: 0


public final java.lang.Object scala$collection$generic$VectorTemplate$$super$last();
  Code:
   Stack=1, Locals=1, Args_size=1
   0:	aload_0
   1:	invokestatic	#1048; //Method scala/collection/generic/TraversableTemplate$class.last:(Lscala/collection/generic/TraversableTemplate;)Ljava/lang/Object;
   4:	areturn
  LineNumberTable: 
   line 30: 0


public final java.lang.Object scala$collection$generic$VectorTemplate$$super$head();
  Code:
   Stack=1, Locals=1, Args_size=1
   0:	aload_0
   1:	invokestatic	#1051; //Method scala/collection/generic/IterableTemplate$class.head:(Lscala/collection/generic/IterableTemplate;)Ljava/lang/Object;
   4:	areturn
  LineNumberTable: 
   line 30: 0


public final java.lang.Object scala$collection$generic$VectorTemplate$$super$zip(scala.collection.Sequence, scala.collection.generic.BuilderFactory);
  Code:
   Stack=3, Locals=3, Args_size=3
   0:	aload_0
   1:	aload_1
   2:	aload_2
   3:	invokestatic	#1054; //Method scala/collection/generic/SequenceTemplate$class.zip:(Lscala/collection/generic/SequenceTemplate;Lscala/collection/Sequence;Lscala/collection/generic/BuilderFactory;)Ljava/lang/Object;
   6:	areturn
  LineNumberTable: 
   line 30: 0

  LocalVariableTable: 
   Start  Length  Slot  Name   Signature
   0      7      0    this       Lscala/collection/mutable/StringBuilder;
   0      7      1    that       Lscala/collection/Sequence;
   0      7      2    bf       Lscala/collection/generic/BuilderFactory;


public final java.lang.Object scala$collection$generic$VectorTemplate$$super$reduceRight(scala.Function2);
  Code:
   Stack=2, Locals=2, Args_size=2
   0:	aload_0
   1:	aload_1
   2:	invokestatic	#1058; //Method scala/collection/generic/IterableTemplate$class.reduceRight:(Lscala/collection/generic/IterableTemplate;Lscala/Function2;)Ljava/lang/Object;
   5:	areturn
  LineNumberTable: 
   line 30: 0

  LocalVariableTable: 
   Start  Length  Slot  Name   Signature
   0      6      0    this       Lscala/collection/mutable/StringBuilder;
   0      6      1    op       Lscala/Function2;


public final java.lang.Object scala$collection$generic$VectorTemplate$$super$reduceLeft(scala.Function2);
  Code:
   Stack=2, Locals=2, Args_size=2
   0:	aload_0
   1:	aload_1
   2:	invokestatic	#1062; //Method scala/collection/generic/TraversableTemplate$class.reduceLeft:(Lscala/collection/generic/TraversableTemplate;Lscala/Function2;)Ljava/lang/Object;
   5:	areturn
  LineNumberTable: 
   line 30: 0

  LocalVariableTable: 
   Start  Length  Slot  Name   Signature
   0      6      0    this       Lscala/collection/mutable/StringBuilder;
   0      6      1    op       Lscala/Function2;


public scala.collection.generic.MutableVectorView view(int, int);
  Code:
   Stack=3, Locals=3, Args_size=3
   0:	aload_0
   1:	iload_1
   2:	iload_2
   3:	invokestatic	#1065; //Method scala/collection/generic/MutableVectorTemplate$class.view:(Lscala/collection/generic/MutableVectorTemplate;II)Lscala/collection/generic/MutableVectorView;
   6:	areturn
  LineNumberTable: 
   line 30: 0

  LocalVariableTable: 
   Start  Length  Slot  Name   Signature
   0      7      0    this       Lscala/collection/mutable/StringBuilder;
   0      7      1    from       I
   0      7      2    until       I


public java.lang.Object view();
  Code:
   Stack=1, Locals=1, Args_size=1
   0:	aload_0
   1:	invokestatic	#1068; //Method scala/collection/generic/MutableVectorTemplate$class.view:(Lscala/collection/generic/MutableVectorTemplate;)Ljava/lang/Object;
   4:	areturn
  LineNumberTable: 
   line 30: 0


public scala.collection.generic.Companion companion();
  Code:
   Stack=1, Locals=1, Args_size=1
   0:	aload_0
   1:	invokestatic	#1073; //Method scala/collection/mutable/Vector$class.companion:(Lscala/collection/mutable/Vector;)Lscala/collection/generic/Companion;
   4:	areturn
  LineNumberTable: 
   line 30: 0


}

