Compiled from "WrappedArray.scala"
public abstract class scala.collection.mutable.WrappedArray extends java.lang.Object implements scala.collection.mutable.IndexedSeq,scala.collection.mutable.ArrayLike,scala.ScalaObject
  SourceFile: "WrappedArray.scala"
  Signature: length = 0x2
   03 24 
  ScalaSig: length = 0xE62
   05 00 FFFFFF83 7F 06 05 01 02 FFFFFF81 00 09 02 0C 57 72 61
   70 70 65 64 41 72 72 61 79 0A 02 03 04 01 07 6D
   75 74 61 62 6C 65 0A 02 05 06 01 0A 63 6F 6C 6C
   65 63 74 69 6F 6E 0A 01 07 01 05 73 63 61 6C 61
   03 00 15 02 0A 19 13 05 00 0B 13 23 27 10 02 0C
   11 0D 01 0D 0A 02 0E 0F 01 04 6C 61 6E 67 0A 01
   10 01 04 6A 61 76 61 09 02 12 0D 02 06 4F 62 6A
   65 63 74 10 03 14 15 17 0D 01 02 09 02 16 02 02
   0A 49 6E 64 65 78 65 64 53 65 71 10 02 18 19 0C
   00 04 08 1A 00 FFFFFF84 FFFFFF80 FFFFFF80 FFFFFFC2 00 1B 02 01 54 11 02
   1C 20 10 02 1D 1E 0D 01 06 09 02 1F 06 02 07 4E
   6F 74 68 69 6E 67 10 02 1D 21 09 02 22 06 02 03
   41 6E 79 10 04 14 24 17 26 09 02 25 02 02 09 41
   72 72 61 79 4C 69 6B 65 10 03 14 00 17 10 02 1D
   28 09 02 29 06 02 0B 53 63 61 6C 61 4F 62 6A 65
   63 74 08 05 2B 00 FFFFFF84 00 2C 01 06 3C 69 6E 69 74
   3E 14 01 26 08 06 2E 00 FFFFFFA0 FFFFFF84 28 2F 01 0E 74 68
   69 73 43 6F 6C 6C 65 63 74 69 6F 6E 15 01 26 08
   06 31 00 FFFFFFA0 FFFFFF84 28 32 01 0C 74 6F 43 6F 6C 6C 65
   63 74 69 6F 6E 14 02 26 33 08 05 34 30 FFFFFFC0 00 26
   01 04 72 65 70 72 08 05 36 00 FFFFFF86 00 37 01 0C 65
   6C 65 6D 4D 61 6E 69 66 65 73 74 15 01 38 10 03
   39 3C 17 0D 01 3A 0A 02 3B 06 01 07 72 65 66 6C
   65 63 74 09 02 3D 3A 02 0D 43 6C 61 73 73 4D 61
   6E 69 66 65 73 74 08 05 3F 00 FFFFFF86 00 40 01 06 6C
   65 6E 67 74 68 15 01 41 10 02 1D 42 09 02 43 06
   02 03 49 6E 74 08 05 45 00 FFFFFF86 00 46 01 05 61 70
   70 6C 79 14 02 17 47 08 05 48 44 FFFFFFC0 00 41 01 05
   69 6E 64 65 78 08 05 4A 00 FFFFFF86 00 4B 01 06 75 70
   64 61 74 65 14 03 4C 4F 50 10 02 1D 4D 09 02 4E
   06 02 04 55 6E 69 74 08 05 48 49 FFFFFFC0 00 41 08 05
   51 49 FFFFFFC0 00 17 01 04 65 6C 65 6D 08 05 53 00 FFFFFF86
   00 54 01 05 61 72 72 61 79 15 01 55 10 03 1D 56
   17 09 02 57 06 02 05 41 72 72 61 79 08 05 59 00
   FFFFFF84 20 5A 01 0C 73 74 72 69 6E 67 50 72 65 66 69
   78 15 01 5B 10 02 0C 5C 09 02 5D 0D 02 06 53 74
   72 69 6E 67 08 06 5F 00 FFFFFFA0 FFFFFF84 28 60 01 0A 6E 65
   77 42 75 69 6C 64 65 72 15 01 61 10 04 14 62 17
   26 09 02 63 02 02 07 42 75 69 6C 64 65 72 07 05
   65 02 FFFFFF88 02 66 01 0C 57 72 61 70 70 65 64 41 72
   72 61 79 10 02 14 67 06 08 01 02 FFFFFF84 FFFFFF80 FFFFFF80 FFFFFF88 02
   68 13 03 67 0B 27 08 05 2B 67 FFFFFF84 00 6A 14 01 66
   08 05 6C 67 FFFFFF84 00 6D 01 04 6D 61 6B 65 15 02 6E
   71 14 02 6F 72 10 03 14 00 70 10 02 18 71 04 08
   1A 6B FFFFFF84 FFFFFF80 FFFFFF80 FFFFFFC2 00 1B 08 05 73 6B FFFFFFC0 00 74 01
   01 78 10 02 1D 75 09 02 76 06 02 06 41 6E 79 52
   65 66 08 05 78 67 FFFFFF84 01 79 01 0C 63 61 6E 42 75
   69 6C 64 46 72 6F 6D 15 03 7A FFFFFF81 07 16 03 7B FFFFFF81
   09 10 08 7C 7F FFFFFF81 01 FFFFFF81 06 FFFFFF81 08 0D 01 7D 0A 02
   7E 04 01 07 67 65 6E 65 72 69 63 09 03 FFFFFF81 00 7D
   02 0C 43 61 6E 42 75 69 6C 64 46 72 6F 6D 30 04
   FFFFFF81 02 FFFFFF81 04 10 04 14 00 FFFFFF81 03 10 03 18 FFFFFF81 04 04
   09 FFFFFF81 05 77 FFFFFF84 FFFFFF80 FFFFFF80 FFFFFF82 00 1B 02 03 5F 24 31 10
   03 18 FFFFFF81 07 04 08 1A 77 FFFFFF84 FFFFFF80 FFFFFF80 FFFFFFC2 00 1B 10 04
   14 00 FFFFFF81 06 08 07 FFFFFF81 0A 77 FFFFFFC0 01 FFFFFF81 0B 01 01 6D
   10 04 39 3C FFFFFF81 06 08 06 5F 67 FFFFFF84 00 FFFFFF81 0D 15 04
   FFFFFF81 0E FFFFFF81 10 10 06 14 62 FFFFFF81 0F FFFFFF81 12 10 03 18 FFFFFF81
   10 04 0A FFFFFF81 11 FFFFFF81 0C FFFFFF84 FFFFFF80 FFFFFF80 FFFFFFC2 00 1B 02 01 41
   10 04 14 15 FFFFFF81 0F 06 06 FFFFFF81 14 67 02 FFFFFF81 15 02 05
   6F 66 52 65 66 15 04 FFFFFF81 16 FFFFFF81 19 13 05 FFFFFF81 13 FFFFFF81
   17 27 10 04 14 00 FFFFFF81 18 10 03 18 FFFFFF81 19 04 0A 1A
   FFFFFF81 13 FFFFFF84 FFFFFF80 FFFFFF80 FFFFFFC2 00 FFFFFF81 1A 11 02 1C 74 08 0A 53
   FFFFFF81 13 FFFFFF82 FFFFFFC2 FFFFFF80 FFFFFF84 00 FFFFFF81 1C 15 02 FFFFFF81 1D 10 04 1D
   56 FFFFFF81 18 08 0B FFFFFF81 1F FFFFFF81 13 FFFFFF82 FFFFFF80 FFFFFFA0 FFFFFF80 04 FFFFFF81 1D
   01 06 61 72 72 61 79 20 08 07 2B FFFFFF81 13 FFFFFF84 00 FFFFFF81
   21 14 04 FFFFFF81 22 FFFFFF81 24 10 06 FFFFFF81 23 FFFFFF81 13 FFFFFF81 18 0D
   01 67 08 07 53 FFFFFF81 20 FFFFFFC0 00 FFFFFF81 1D 08 0A 36 FFFFFF81 13
   FFFFFF88 FFFFFFC2 FFFFFF80 FFFFFF84 00 FFFFFF81 26 15 02 FFFFFF81 27 10 04 39 3C FFFFFF81
   18 08 0B FFFFFF81 29 FFFFFF81 13 FFFFFF88 FFFFFF80 FFFFFFA0 FFFFFFA0 04 FFFFFF81 27 01 0D
   65 6C 65 6D 4D 61 6E 69 66 65 73 74 20 08 06 3F
   FFFFFF81 13 FFFFFF84 00 40 08 07 45 FFFFFF81 13 FFFFFF84 00 FFFFFF81 2C 14 04
   FFFFFF81 18 FFFFFF81 2D 08 06 48 FFFFFF81 2B FFFFFFC0 00 41 08 07 4A FFFFFF81
   13 FFFFFF84 00 FFFFFF81 2F 14 05 4C FFFFFF81 30 FFFFFF81 31 08 06 48 FFFFFF81
   2E FFFFFFC0 00 41 08 07 51 FFFFFF81 2E FFFFFFC0 00 FFFFFF81 18 28 04 FFFFFF81
   13 FFFFFF81 33 10 03 1D FFFFFF81 34 09 03 FFFFFF81 35 06 02 0C 73
   65 72 69 61 6C 69 7A 61 62 6C 65 06 0A FFFFFF81 37 67
   FFFFFF84 FFFFFF80 FFFFFF80 FFFFFF80 02 FFFFFF81 38 02 06 6F 66 42 79 74 65 13
   05 FFFFFF81 36 FFFFFF81 39 27 10 04 14 00 FFFFFF81 3A 10 03 1D FFFFFF81
   3B 09 03 FFFFFF81 3C 06 02 04 42 79 74 65 08 0A 53 FFFFFF81
   36 FFFFFF82 FFFFFFC2 FFFFFF80 FFFFFF84 00 FFFFFF81 3E 15 02 FFFFFF81 3F 10 04 1D 56
   FFFFFF81 3A 08 0B FFFFFF81 1F FFFFFF81 36 FFFFFF82 FFFFFF80 FFFFFFA0 FFFFFF80 04 FFFFFF81 3F 08
   07 2B FFFFFF81 36 FFFFFF84 00 FFFFFF81 42 14 04 FFFFFF81 43 FFFFFF81 44 10 04
   FFFFFF81 23 FFFFFF81 36 08 07 53 FFFFFF81 41 FFFFFFC0 00 FFFFFF81 3F 08 07 36
   FFFFFF81 36 FFFFFF84 00 FFFFFF81 46 15 02 FFFFFF81 47 12 05 FFFFFF81 48 0B FFFFFF81
   4E 06 0A FFFFFF81 49 00 FFFFFF84 FFFFFF80 FFFFFF80 FFFFFF80 00 FFFFFF81 47 02 0C 3C
   72 65 66 69 6E 65 6D 65 6E 74 3E 09 04 FFFFFF81 4B FFFFFF81
   4C 01 05 42 79 74 65 20 0A 03 FFFFFF81 4D 3A 01 08 4D
   61 6E 69 66 65 73 74 10 05 39 FFFFFF81 4F FFFFFF81 3A 09 03
   FFFFFF81 50 3A 02 08 4D 61 6E 69 66 65 73 74 08 08 FFFFFF81
   52 FFFFFF81 48 FFFFFF84 00 FFFFFF81 53 01 07 65 72 61 73 75 72 65
   15 02 FFFFFF81 54 10 05 0C FFFFFF81 55 FFFFFF81 57 09 03 FFFFFF81 56 0D
   02 05 43 6C 61 73 73 10 03 0C FFFFFF81 58 09 03 FFFFFF81 3C
   0D 08 06 3F FFFFFF81 36 FFFFFF84 00 40 08 07 45 FFFFFF81 36 FFFFFF84 00
   FFFFFF81 5B 14 04 FFFFFF81 3A FFFFFF81 5C 08 06 48 FFFFFF81 5A FFFFFFC0 00 41
   08 07 4A FFFFFF81 36 FFFFFF84 00 FFFFFF81 5E 14 05 4C FFFFFF81 5F FFFFFF81 60
   08 06 48 FFFFFF81 5D FFFFFFC0 00 41 08 07 51 FFFFFF81 5D FFFFFFC0 00 FFFFFF81
   3A 28 04 FFFFFF81 36 FFFFFF81 33 06 0A FFFFFF81 63 67 FFFFFF84 FFFFFF80 FFFFFF80 FFFFFF80
   02 FFFFFF81 64 02 07 6F 66 53 68 6F 72 74 13 05 FFFFFF81 62
   FFFFFF81 65 27 10 04 14 00 FFFFFF81 66 10 03 1D FFFFFF81 67 09 03
   FFFFFF81 68 06 02 05 53 68 6F 72 74 08 0A 53 FFFFFF81 62 FFFFFF82
   FFFFFFC2 FFFFFF80 FFFFFF84 00 FFFFFF81 6A 15 02 FFFFFF81 6B 10 04 1D 56 FFFFFF81 66
   08 0B FFFFFF81 1F FFFFFF81 62 FFFFFF82 FFFFFF80 FFFFFFA0 FFFFFF80 04 FFFFFF81 6B 08 07 2B
   FFFFFF81 62 FFFFFF84 00 FFFFFF81 6E 14 04 FFFFFF81 6F FFFFFF81 70 10 04 FFFFFF81 23
   FFFFFF81 62 08 07 53 FFFFFF81 6D FFFFFFC0 00 FFFFFF81 6B 08 07 36 FFFFFF81 62
   FFFFFF84 00 FFFFFF81 72 15 02 FFFFFF81 73 12 05 FFFFFF81 74 0B FFFFFF81 77 06
   0A FFFFFF81 49 00 FFFFFF84 FFFFFF80 FFFFFF80 FFFFFF80 00 FFFFFF81 73 09 04 FFFFFF81 76 FFFFFF81
   4C 01 06 53 68 6F 72 74 20 10 05 39 FFFFFF81 4F FFFFFF81 66
   08 08 FFFFFF81 52 FFFFFF81 74 FFFFFF84 00 FFFFFF81 79 15 02 FFFFFF81 7A 10 05
   0C FFFFFF81 55 FFFFFF81 7B 10 03 0C FFFFFF81 7C 09 03 FFFFFF81 68 0D 08
   06 3F FFFFFF81 62 FFFFFF84 00 40 08 07 45 FFFFFF81 62 FFFFFF84 00 FFFFFF81 7F
   14 04 FFFFFF81 66 FFFFFF82 00 08 06 48 FFFFFF81 7E FFFFFFC0 00 41 08 07
   4A FFFFFF81 62 FFFFFF84 00 FFFFFF82 02 14 05 4C FFFFFF82 03 FFFFFF82 04 08 06
   48 FFFFFF82 01 FFFFFFC0 00 41 08 07 51 FFFFFF82 01 FFFFFFC0 00 FFFFFF81 66 28
   04 FFFFFF81 62 FFFFFF81 33 06 0A FFFFFF82 07 67 FFFFFF84 FFFFFF80 FFFFFF80 FFFFFF80 02 FFFFFF82
   08 02 06 6F 66 43 68 61 72 13 05 FFFFFF82 06 FFFFFF82 09 27
   10 04 14 00 FFFFFF82 0A 10 03 1D FFFFFF82 0B 09 03 FFFFFF82 0C 06
   02 04 43 68 61 72 08 0A 53 FFFFFF82 06 FFFFFF82 FFFFFFC2 FFFFFF80 FFFFFF84 00
   FFFFFF82 0E 15 02 FFFFFF82 0F 10 04 1D 56 FFFFFF82 0A 08 0B FFFFFF81 1F
   FFFFFF82 06 FFFFFF82 FFFFFF80 FFFFFFA0 FFFFFF80 04 FFFFFF82 0F 08 07 2B FFFFFF82 06 FFFFFF84 00
   FFFFFF82 12 14 04 FFFFFF82 13 FFFFFF82 14 10 04 FFFFFF81 23 FFFFFF82 06 08 07
   53 FFFFFF82 11 FFFFFFC0 00 FFFFFF82 0F 08 07 36 FFFFFF82 06 FFFFFF84 00 FFFFFF82 16
   15 02 FFFFFF82 17 12 05 FFFFFF82 18 0B FFFFFF82 1B 06 0A FFFFFF81 49 00
   FFFFFF84 FFFFFF80 FFFFFF80 FFFFFF80 00 FFFFFF82 17 09 04 FFFFFF82 1A FFFFFF81 4C 01 05 43
   68 61 72 20 10 05 39 FFFFFF81 4F FFFFFF82 0A 08 08 FFFFFF81 52 FFFFFF82
   18 FFFFFF84 00 FFFFFF82 1D 15 02 FFFFFF82 1E 10 05 0C FFFFFF81 55 FFFFFF82 1F
   10 03 0C FFFFFF82 20 09 03 FFFFFF82 21 0D 02 09 43 68 61 72
   61 63 74 65 72 08 06 3F FFFFFF82 06 FFFFFF84 00 40 08 07 45
   FFFFFF82 06 FFFFFF84 00 FFFFFF82 24 14 04 FFFFFF82 0A FFFFFF82 25 08 06 48 FFFFFF82
   23 FFFFFFC0 00 41 08 07 4A FFFFFF82 06 FFFFFF84 00 FFFFFF82 27 14 05 4C
   FFFFFF82 28 FFFFFF82 29 08 06 48 FFFFFF82 26 FFFFFFC0 00 41 08 07 51 FFFFFF82
   26 FFFFFFC0 00 FFFFFF82 0A 28 04 FFFFFF82 06 FFFFFF81 33 06 0A FFFFFF82 2C 67
   FFFFFF84 FFFFFF80 FFFFFF80 FFFFFF80 02 FFFFFF82 2D 02 05 6F 66 49 6E 74 13 05
   FFFFFF82 2B FFFFFF82 2E 27 10 03 14 00 41 08 0A 53 FFFFFF82 2B FFFFFF82
   FFFFFFC2 FFFFFF80 FFFFFF84 00 FFFFFF82 30 15 02 FFFFFF82 31 10 03 1D 56 41 08
   0B FFFFFF81 1F FFFFFF82 2B FFFFFF82 FFFFFF80 FFFFFFA0 FFFFFF80 04 FFFFFF82 31 08 07 2B FFFFFF82
   2B FFFFFF84 00 FFFFFF82 34 14 04 FFFFFF82 35 FFFFFF82 36 10 04 FFFFFF81 23 FFFFFF82
   2B 08 07 53 FFFFFF82 33 FFFFFFC0 00 FFFFFF82 31 08 07 36 FFFFFF82 2B FFFFFF84
   00 FFFFFF82 38 15 02 FFFFFF82 39 12 05 FFFFFF82 3A 0B FFFFFF82 3D 06 0A
   FFFFFF81 49 00 FFFFFF84 FFFFFF80 FFFFFF80 FFFFFF80 00 FFFFFF82 39 09 04 FFFFFF82 3C FFFFFF81 4C
   01 04 49 6E 74 20 10 04 39 FFFFFF81 4F 41 08 08 FFFFFF81 52
   FFFFFF82 3A FFFFFF84 00 FFFFFF82 3F 15 02 FFFFFF82 40 10 05 0C FFFFFF81 55 FFFFFF82
   41 10 03 0C FFFFFF82 42 09 03 FFFFFF82 43 0D 02 07 49 6E 74
   65 67 65 72 08 06 3F FFFFFF82 2B FFFFFF84 00 40 08 07 45 FFFFFF82
   2B FFFFFF84 00 FFFFFF82 46 14 03 41 FFFFFF82 47 08 06 48 FFFFFF82 45 FFFFFFC0
   00 41 08 07 4A FFFFFF82 2B FFFFFF84 00 FFFFFF82 49 14 05 4C FFFFFF82 4A
   FFFFFF82 4B 08 06 48 FFFFFF82 48 FFFFFFC0 00 41 08 06 51 FFFFFF82 48 FFFFFFC0
   00 41 28 04 FFFFFF82 2B FFFFFF81 33 06 0A FFFFFF82 4E 67 FFFFFF84 FFFFFF80 FFFFFF80
   FFFFFF80 02 FFFFFF82 4F 02 06 6F 66 4C 6F 6E 67 13 05 FFFFFF82 4D
   FFFFFF82 50 27 10 04 14 00 FFFFFF82 51 10 03 1D FFFFFF82 52 09 03
   FFFFFF82 53 06 02 04 4C 6F 6E 67 08 0A 53 FFFFFF82 4D FFFFFF82 FFFFFFC2
   FFFFFF80 FFFFFF84 00 FFFFFF82 55 15 02 FFFFFF82 56 10 04 1D 56 FFFFFF82 51 08
   0B FFFFFF81 1F FFFFFF82 4D FFFFFF82 FFFFFF80 FFFFFFA0 FFFFFF80 04 FFFFFF82 56 08 07 2B FFFFFF82
   4D FFFFFF84 00 FFFFFF82 59 14 04 FFFFFF82 5A FFFFFF82 5B 10 04 FFFFFF81 23 FFFFFF82
   4D 08 07 53 FFFFFF82 58 FFFFFFC0 00 FFFFFF82 56 08 07 36 FFFFFF82 4D FFFFFF84
   00 FFFFFF82 5D 15 02 FFFFFF82 5E 12 05 FFFFFF82 5F 0B FFFFFF82 62 06 0A
   FFFFFF81 49 00 FFFFFF84 FFFFFF80 FFFFFF80 FFFFFF80 00 FFFFFF82 5E 09 04 FFFFFF82 61 FFFFFF81 4C
   01 05 4C 6F 6E 67 20 10 05 39 FFFFFF81 4F FFFFFF82 51 08 08
   FFFFFF81 52 FFFFFF82 5F FFFFFF84 00 FFFFFF82 64 15 02 FFFFFF82 65 10 05 0C FFFFFF81
   55 FFFFFF82 66 10 03 0C FFFFFF82 67 09 03 FFFFFF82 53 0D 08 06 3F
   FFFFFF82 4D FFFFFF84 00 40 08 07 45 FFFFFF82 4D FFFFFF84 00 FFFFFF82 6A 14 04
   FFFFFF82 51 FFFFFF82 6B 08 06 48 FFFFFF82 69 FFFFFFC0 00 41 08 07 4A FFFFFF82
   4D FFFFFF84 00 FFFFFF82 6D 14 05 4C FFFFFF82 6E FFFFFF82 6F 08 06 48 FFFFFF82
   6C FFFFFFC0 00 41 08 07 51 FFFFFF82 6C FFFFFFC0 00 FFFFFF82 51 28 04 FFFFFF82
   4D FFFFFF81 33 06 0A FFFFFF82 72 67 FFFFFF84 FFFFFF80 FFFFFF80 FFFFFF80 02 FFFFFF82 73 02
   07 6F 66 46 6C 6F 61 74 13 05 FFFFFF82 71 FFFFFF82 74 27 10
   04 14 00 FFFFFF82 75 10 03 1D FFFFFF82 76 09 03 FFFFFF82 77 06 02
   05 46 6C 6F 61 74 08 0A 53 FFFFFF82 71 FFFFFF82 FFFFFFC2 FFFFFF80 FFFFFF84 00
   FFFFFF82 79 15 02 FFFFFF82 7A 10 04 1D 56 FFFFFF82 75 08 0B FFFFFF81 1F
   FFFFFF82 71 FFFFFF82 FFFFFF80 FFFFFFA0 FFFFFF80 04 FFFFFF82 7A 08 07 2B FFFFFF82 71 FFFFFF84 00
   FFFFFF82 7D 14 04 FFFFFF82 7E FFFFFF82 7F 10 04 FFFFFF81 23 FFFFFF82 71 08 07
   53 FFFFFF82 7C FFFFFFC0 00 FFFFFF82 7A 08 07 36 FFFFFF82 71 FFFFFF84 00 FFFFFF83 01
   15 02 FFFFFF83 02 12 05 FFFFFF83 03 0B FFFFFF83 06 06 0A FFFFFF81 49 00
   FFFFFF84 FFFFFF80 FFFFFF80 FFFFFF80 00 FFFFFF83 02 09 04 FFFFFF83 05 FFFFFF81 4C 01 06 46
   6C 6F 61 74 20 10 05 39 FFFFFF81 4F FFFFFF82 75 08 08 FFFFFF81 52
   FFFFFF83 03 FFFFFF84 00 FFFFFF83 08 15 02 FFFFFF83 09 10 05 0C FFFFFF81 55 FFFFFF83
   0A 10 03 0C FFFFFF83 0B 09 03 FFFFFF82 77 0D 08 06 3F FFFFFF82 71
   FFFFFF84 00 40 08 07 45 FFFFFF82 71 FFFFFF84 00 FFFFFF83 0E 14 04 FFFFFF82 75
   FFFFFF83 0F 08 06 48 FFFFFF83 0D FFFFFFC0 00 41 08 07 4A FFFFFF82 71 FFFFFF84
   00 FFFFFF83 11 14 05 4C FFFFFF83 12 FFFFFF83 13 08 06 48 FFFFFF83 10 FFFFFFC0
   00 41 08 07 51 FFFFFF83 10 FFFFFFC0 00 FFFFFF82 75 28 04 FFFFFF82 71 FFFFFF81
   33 06 0A FFFFFF83 16 67 FFFFFF84 FFFFFF80 FFFFFF80 FFFFFF80 02 FFFFFF83 17 02 08 6F
   66 44 6F 75 62 6C 65 13 05 FFFFFF83 15 FFFFFF83 18 27 10 04
   14 00 FFFFFF83 19 10 03 1D FFFFFF83 1A 09 03 FFFFFF83 1B 06 02 06
   44 6F 75 62 6C 65 08 0A 53 FFFFFF83 15 FFFFFF82 FFFFFFC2 FFFFFF80 FFFFFF84 00
   FFFFFF83 1D 15 02 FFFFFF83 1E 10 04 1D 56 FFFFFF83 19 08 0B FFFFFF81 1F
   FFFFFF83 15 FFFFFF82 FFFFFF80 FFFFFFA0 FFFFFF80 04 FFFFFF83 1E 08 07 2B FFFFFF83 15 FFFFFF84 00
   FFFFFF83 21 14 04 FFFFFF83 22 FFFFFF83 23 10 04 FFFFFF81 23 FFFFFF83 15 08 07
   53 FFFFFF83 20 FFFFFFC0 00 FFFFFF83 1E 08 07 36 FFFFFF83 15 FFFFFF84 00 FFFFFF83 25
   15 02 FFFFFF83 26 12 05 FFFFFF83 27 0B FFFFFF83 2A 06 0A FFFFFF81 49 00
   FFFFFF84 FFFFFF80 FFFFFF80 FFFFFF80 00 FFFFFF83 26 09 04 FFFFFF83 29 FFFFFF81 4C 01 07 44
   6F 75 62 6C 65 20 10 05 39 FFFFFF81 4F FFFFFF83 19 08 08 FFFFFF81
   52 FFFFFF83 27 FFFFFF84 00 FFFFFF83 2C 15 02 FFFFFF83 2D 10 05 0C FFFFFF81 55
   FFFFFF83 2E 10 03 0C FFFFFF83 2F 09 03 FFFFFF83 1B 0D 08 06 3F FFFFFF83
   15 FFFFFF84 00 40 08 07 45 FFFFFF83 15 FFFFFF84 00 FFFFFF83 32 14 04 FFFFFF83
   19 FFFFFF83 33 08 06 48 FFFFFF83 31 FFFFFFC0 00 41 08 07 4A FFFFFF83 15
   FFFFFF84 00 FFFFFF83 35 14 05 4C FFFFFF83 36 FFFFFF83 37 08 06 48 FFFFFF83 34
   FFFFFFC0 00 41 08 07 51 FFFFFF83 34 FFFFFFC0 00 FFFFFF83 19 28 04 FFFFFF83 15
   FFFFFF81 33 06 0A FFFFFF83 3A 67 FFFFFF84 FFFFFF80 FFFFFF80 FFFFFF80 02 FFFFFF83 3B 02 09
   6F 66 42 6F 6F 6C 65 61 6E 13 05 FFFFFF83 39 FFFFFF83 3C 27
   10 04 14 00 FFFFFF83 3D 10 03 1D FFFFFF83 3E 09 03 FFFFFF83 3F 06
   02 07 42 6F 6F 6C 65 61 6E 08 0A 53 FFFFFF83 39 FFFFFF82 FFFFFFC2
   FFFFFF80 FFFFFF84 00 FFFFFF83 41 15 02 FFFFFF83 42 10 04 1D 56 FFFFFF83 3D 08
   0B FFFFFF81 1F FFFFFF83 39 FFFFFF82 FFFFFF80 FFFFFFA0 FFFFFF80 04 FFFFFF83 42 08 07 2B FFFFFF83
   39 FFFFFF84 00 FFFFFF83 45 14 04 FFFFFF83 46 FFFFFF83 47 10 04 FFFFFF81 23 FFFFFF83
   39 08 07 53 FFFFFF83 44 FFFFFFC0 00 FFFFFF83 42 08 07 36 FFFFFF83 39 FFFFFF84
   00 FFFFFF83 49 15 02 FFFFFF83 4A 12 05 FFFFFF83 4B 0B FFFFFF83 4E 06 0A
   FFFFFF81 49 00 FFFFFF84 FFFFFF80 FFFFFF80 FFFFFF80 00 FFFFFF83 4A 09 04 FFFFFF83 4D FFFFFF81 4C
   01 08 42 6F 6F 6C 65 61 6E 20 10 05 39 FFFFFF81 4F FFFFFF83
   3D 08 08 FFFFFF81 52 FFFFFF83 4B FFFFFF84 00 FFFFFF83 50 15 02 FFFFFF83 51 10
   05 0C FFFFFF81 55 FFFFFF83 52 10 03 0C FFFFFF83 53 09 03 FFFFFF83 3F 0D
   08 06 3F FFFFFF83 39 FFFFFF84 00 40 08 07 45 FFFFFF83 39 FFFFFF84 00 FFFFFF83
   56 14 04 FFFFFF83 3D FFFFFF83 57 08 06 48 FFFFFF83 55 FFFFFFC0 00 41 08
   07 4A FFFFFF83 39 FFFFFF84 00 FFFFFF83 59 14 05 4C FFFFFF83 5A FFFFFF83 5B 08
   06 48 FFFFFF83 58 FFFFFFC0 00 41 08 07 51 FFFFFF83 58 FFFFFFC0 00 FFFFFF83 3D
   28 04 FFFFFF83 39 FFFFFF81 33 06 0A FFFFFF83 5E 67 FFFFFF84 FFFFFF80 FFFFFF80 FFFFFF80 02
   FFFFFF83 5F 02 06 6F 66 55 6E 69 74 13 05 FFFFFF83 5D FFFFFF83 60
   27 10 03 14 00 4C 08 0A 53 FFFFFF83 5D FFFFFF82 FFFFFFC2 FFFFFF80 FFFFFF84 00
   FFFFFF83 62 15 02 FFFFFF83 63 10 03 1D 56 4C 08 0B FFFFFF81 1F FFFFFF83
   5D FFFFFF82 FFFFFF80 FFFFFFA0 FFFFFF80 04 FFFFFF83 63 08 07 2B FFFFFF83 5D FFFFFF84 00 FFFFFF83
   66 14 04 FFFFFF83 67 FFFFFF83 68 10 04 FFFFFF81 23 FFFFFF83 5D 08 07 53
   FFFFFF83 65 FFFFFFC0 00 FFFFFF83 63 08 07 36 FFFFFF83 5D FFFFFF84 00 FFFFFF83 6A 15
   02 FFFFFF83 6B 12 05 FFFFFF83 6C 0B FFFFFF83 6F 06 0A FFFFFF81 49 00 FFFFFF84
   FFFFFF80 FFFFFF80 FFFFFF80 00 FFFFFF83 6B 09 04 FFFFFF83 6E FFFFFF81 4C 01 05 55 6E
   69 74 20 10 04 39 FFFFFF81 4F 4C 08 08 FFFFFF81 52 FFFFFF83 6C FFFFFF84
   00 FFFFFF83 71 15 02 FFFFFF83 72 10 05 0C FFFFFF81 55 FFFFFF83 73 10 03
   0C FFFFFF83 74 09 03 FFFFFF83 75 0D 02 04 56 6F 69 64 08 06
   3F FFFFFF83 5D FFFFFF84 00 40 08 07 45 FFFFFF83 5D FFFFFF84 00 FFFFFF83 78 14
   03 4C FFFFFF83 79 08 06 48 FFFFFF83 77 FFFFFFC0 00 41 08 07 4A FFFFFF83
   5D FFFFFF84 00 FFFFFF83 7B 14 05 4C FFFFFF83 7C FFFFFF83 7D 08 06 48 FFFFFF83
   7A FFFFFFC0 00 41 08 06 51 FFFFFF83 7A FFFFFFC0 00 4C 28 04 FFFFFF83 5D
   FFFFFF81 33 
  InnerClass: 
   public final #809= #808 of #117; //ofInt=class scala/collection/mutable/WrappedArray$ofInt of class scala/collection/mutable/WrappedArray
   public final #812= #811 of #117; //ofRef=class scala/collection/mutable/WrappedArray$ofRef of class scala/collection/mutable/WrappedArray
   public final #815= #814 of #117; //ofUnit=class scala/collection/mutable/WrappedArray$ofUnit of class scala/collection/mutable/WrappedArray
   public final #818= #817 of #117; //ofLong=class scala/collection/mutable/WrappedArray$ofLong of class scala/collection/mutable/WrappedArray
   public final #821= #820 of #117; //ofChar=class scala/collection/mutable/WrappedArray$ofChar of class scala/collection/mutable/WrappedArray
   public final #824= #823 of #117; //ofByte=class scala/collection/mutable/WrappedArray$ofByte of class scala/collection/mutable/WrappedArray
   public final #827= #826 of #117; //$anon$1=class scala/collection/mutable/WrappedArray$$anon$1 of class scala/collection/mutable/WrappedArray
   public final #830= #829 of #117; //ofFloat=class scala/collection/mutable/WrappedArray$ofFloat of class scala/collection/mutable/WrappedArray
   public final #833= #832 of #117; //ofShort=class scala/collection/mutable/WrappedArray$ofShort of class scala/collection/mutable/WrappedArray
   public final #836= #835 of #117; //ofDouble=class scala/collection/mutable/WrappedArray$ofDouble of class scala/collection/mutable/WrappedArray
   public final #839= #838 of #117; //ofBoolean=class scala/collection/mutable/WrappedArray$ofBoolean of class scala/collection/mutable/WrappedArray
   public #844= #841 of #843; //WithFilter=class scala/collection/TraversableLike$WithFilter of class scala/collection/TraversableLike
  minor version: 0
  major version: 49
  Constant pool:
const #1 = Asciz	SourceFile;
const #2 = Asciz	WrappedArray.scala;
const #3 = Asciz	canBuildFrom;
const #4 = Asciz	(Lscala/reflect/ClassManifest;)Lscala/collection/generic/CanBuildFrom;;
const #5 = Asciz	Code;
const #6 = Asciz	scala/collection/mutable/WrappedArray$;
const #7 = class	#6;	//  scala/collection/mutable/WrappedArray$
const #8 = Asciz	MODULE$;
const #9 = Asciz	Lscala/collection/mutable/WrappedArray$;;
const #10 = NameAndType	#8:#9;//  MODULE$:Lscala/collection/mutable/WrappedArray$;
const #11 = Field	#7.#10;	//  scala/collection/mutable/WrappedArray$.MODULE$:Lscala/collection/mutable/WrappedArray$;
const #12 = NameAndType	#3:#4;//  canBuildFrom:(Lscala/reflect/ClassManifest;)Lscala/collection/generic/CanBuildFrom;
const #13 = Method	#7.#12;	//  scala/collection/mutable/WrappedArray$.canBuildFrom:(Lscala/reflect/ClassManifest;)Lscala/collection/generic/CanBuildFrom;
const #14 = Asciz	<T:Ljava/lang/Object;>(Lscala/reflect/ClassManifest<TT;>;)Lscala/collection/generic/CanBuildFrom<Lscala/collection/mutable/WrappedArray<*>;TT;Lscala/collection/mutable/WrappedArray<TT;>;>;;
const #15 = Asciz	Signature;
const #16 = Asciz	make;
const #17 = Asciz	(Ljava/lang/Object;)Lscala/collection/mutable/WrappedArray;;
const #18 = NameAndType	#16:#17;//  make:(Ljava/lang/Object;)Lscala/collection/mutable/WrappedArray;
const #19 = Method	#7.#18;	//  scala/collection/mutable/WrappedArray$.make:(Ljava/lang/Object;)Lscala/collection/mutable/WrappedArray;
const #20 = Asciz	<T:Ljava/lang/Object;>(Ljava/lang/Object;)Lscala/collection/mutable/WrappedArray<TT;>;;
const #21 = Asciz	<init>;
const #22 = Asciz	()V;
const #23 = Asciz	LineNumberTable;
const #24 = Asciz	java/lang/Object;
const #25 = class	#24;	//  java/lang/Object
const #26 = NameAndType	#21:#22;//  "<init>":()V
const #27 = Method	#25.#26;	//  java/lang/Object."<init>":()V
const #28 = Asciz	scala/collection/TraversableLike$class;
const #29 = class	#28;	//  scala/collection/TraversableLike$class
const #30 = Asciz	$init$;
const #31 = Asciz	(Lscala/collection/TraversableLike;)V;
const #32 = NameAndType	#30:#31;//  $init$:(Lscala/collection/TraversableLike;)V
const #33 = Method	#29.#32;	//  scala/collection/TraversableLike$class.$init$:(Lscala/collection/TraversableLike;)V
const #34 = Asciz	scala/collection/generic/GenericTraversableTemplate$class;
const #35 = class	#34;	//  scala/collection/generic/GenericTraversableTemplate$class
const #36 = Asciz	(Lscala/collection/generic/GenericTraversableTemplate;)V;
const #37 = NameAndType	#30:#36;//  $init$:(Lscala/collection/generic/GenericTraversableTemplate;)V
const #38 = Method	#35.#37;	//  scala/collection/generic/GenericTraversableTemplate$class.$init$:(Lscala/collection/generic/GenericTraversableTemplate;)V
const #39 = Asciz	scala/collection/Traversable$class;
const #40 = class	#39;	//  scala/collection/Traversable$class
const #41 = Asciz	(Lscala/collection/Traversable;)V;
const #42 = NameAndType	#30:#41;//  $init$:(Lscala/collection/Traversable;)V
const #43 = Method	#40.#42;	//  scala/collection/Traversable$class.$init$:(Lscala/collection/Traversable;)V
const #44 = Asciz	scala/collection/mutable/Traversable$class;
const #45 = class	#44;	//  scala/collection/mutable/Traversable$class
const #46 = Asciz	(Lscala/collection/mutable/Traversable;)V;
const #47 = NameAndType	#30:#46;//  $init$:(Lscala/collection/mutable/Traversable;)V
const #48 = Method	#45.#47;	//  scala/collection/mutable/Traversable$class.$init$:(Lscala/collection/mutable/Traversable;)V
const #49 = Asciz	scala/collection/IterableLike$class;
const #50 = class	#49;	//  scala/collection/IterableLike$class
const #51 = Asciz	(Lscala/collection/IterableLike;)V;
const #52 = NameAndType	#30:#51;//  $init$:(Lscala/collection/IterableLike;)V
const #53 = Method	#50.#52;	//  scala/collection/IterableLike$class.$init$:(Lscala/collection/IterableLike;)V
const #54 = Asciz	scala/collection/Iterable$class;
const #55 = class	#54;	//  scala/collection/Iterable$class
const #56 = Asciz	(Lscala/collection/Iterable;)V;
const #57 = NameAndType	#30:#56;//  $init$:(Lscala/collection/Iterable;)V
const #58 = Method	#55.#57;	//  scala/collection/Iterable$class.$init$:(Lscala/collection/Iterable;)V
const #59 = Asciz	scala/collection/mutable/Iterable$class;
const #60 = class	#59;	//  scala/collection/mutable/Iterable$class
const #61 = Asciz	(Lscala/collection/mutable/Iterable;)V;
const #62 = NameAndType	#30:#61;//  $init$:(Lscala/collection/mutable/Iterable;)V
const #63 = Method	#60.#62;	//  scala/collection/mutable/Iterable$class.$init$:(Lscala/collection/mutable/Iterable;)V
const #64 = Asciz	scala/Function1$class;
const #65 = class	#64;	//  scala/Function1$class
const #66 = Asciz	(Lscala/Function1;)V;
const #67 = NameAndType	#30:#66;//  $init$:(Lscala/Function1;)V
const #68 = Method	#65.#67;	//  scala/Function1$class.$init$:(Lscala/Function1;)V
const #69 = Asciz	scala/PartialFunction$class;
const #70 = class	#69;	//  scala/PartialFunction$class
const #71 = Asciz	(Lscala/PartialFunction;)V;
const #72 = NameAndType	#30:#71;//  $init$:(Lscala/PartialFunction;)V
const #73 = Method	#70.#72;	//  scala/PartialFunction$class.$init$:(Lscala/PartialFunction;)V
const #74 = Asciz	scala/collection/SeqLike$class;
const #75 = class	#74;	//  scala/collection/SeqLike$class
const #76 = Asciz	(Lscala/collection/SeqLike;)V;
const #77 = NameAndType	#30:#76;//  $init$:(Lscala/collection/SeqLike;)V
const #78 = Method	#75.#77;	//  scala/collection/SeqLike$class.$init$:(Lscala/collection/SeqLike;)V
const #79 = Asciz	scala/collection/Seq$class;
const #80 = class	#79;	//  scala/collection/Seq$class
const #81 = Asciz	(Lscala/collection/Seq;)V;
const #82 = NameAndType	#30:#81;//  $init$:(Lscala/collection/Seq;)V
const #83 = Method	#80.#82;	//  scala/collection/Seq$class.$init$:(Lscala/collection/Seq;)V
const #84 = Asciz	scala/collection/mutable/Seq$class;
const #85 = class	#84;	//  scala/collection/mutable/Seq$class
const #86 = Asciz	(Lscala/collection/mutable/Seq;)V;
const #87 = NameAndType	#30:#86;//  $init$:(Lscala/collection/mutable/Seq;)V
const #88 = Method	#85.#87;	//  scala/collection/mutable/Seq$class.$init$:(Lscala/collection/mutable/Seq;)V
const #89 = Asciz	scala/collection/IndexedSeqLike$class;
const #90 = class	#89;	//  scala/collection/IndexedSeqLike$class
const #91 = Asciz	(Lscala/collection/IndexedSeqLike;)V;
const #92 = NameAndType	#30:#91;//  $init$:(Lscala/collection/IndexedSeqLike;)V
const #93 = Method	#90.#92;	//  scala/collection/IndexedSeqLike$class.$init$:(Lscala/collection/IndexedSeqLike;)V
const #94 = Asciz	scala/collection/IndexedSeq$class;
const #95 = class	#94;	//  scala/collection/IndexedSeq$class
const #96 = Asciz	(Lscala/collection/IndexedSeq;)V;
const #97 = NameAndType	#30:#96;//  $init$:(Lscala/collection/IndexedSeq;)V
const #98 = Method	#95.#97;	//  scala/collection/IndexedSeq$class.$init$:(Lscala/collection/IndexedSeq;)V
const #99 = Asciz	scala/collection/mutable/IndexedSeqLike$class;
const #100 = class	#99;	//  scala/collection/mutable/IndexedSeqLike$class
const #101 = Asciz	(Lscala/collection/mutable/IndexedSeqLike;)V;
const #102 = NameAndType	#30:#101;//  $init$:(Lscala/collection/mutable/IndexedSeqLike;)V
const #103 = Method	#100.#102;	//  scala/collection/mutable/IndexedSeqLike$class.$init$:(Lscala/collection/mutable/IndexedSeqLike;)V
const #104 = Asciz	scala/collection/mutable/IndexedSeq$class;
const #105 = class	#104;	//  scala/collection/mutable/IndexedSeq$class
const #106 = Asciz	(Lscala/collection/mutable/IndexedSeq;)V;
const #107 = NameAndType	#30:#106;//  $init$:(Lscala/collection/mutable/IndexedSeq;)V
const #108 = Method	#105.#107;	//  scala/collection/mutable/IndexedSeq$class.$init$:(Lscala/collection/mutable/IndexedSeq;)V
const #109 = Asciz	scala/collection/mutable/ArrayLike$class;
const #110 = class	#109;	//  scala/collection/mutable/ArrayLike$class
const #111 = Asciz	(Lscala/collection/mutable/ArrayLike;)V;
const #112 = NameAndType	#30:#111;//  $init$:(Lscala/collection/mutable/ArrayLike;)V
const #113 = Method	#110.#112;	//  scala/collection/mutable/ArrayLike$class.$init$:(Lscala/collection/mutable/ArrayLike;)V
const #114 = Asciz	thisCollection;
const #115 = Asciz	()Lscala/collection/mutable/IndexedSeq;;
const #116 = Asciz	scala/collection/mutable/WrappedArray;
const #117 = class	#116;	//  scala/collection/mutable/WrappedArray
const #118 = Asciz	()Lscala/collection/mutable/WrappedArray;;
const #119 = NameAndType	#114:#118;//  thisCollection:()Lscala/collection/mutable/WrappedArray;
const #120 = Method	#117.#119;	//  scala/collection/mutable/WrappedArray.thisCollection:()Lscala/collection/mutable/WrappedArray;
const #121 = Asciz	()Lscala/collection/IndexedSeq;;
const #122 = Asciz	()Lscala/collection/Seq;;
const #123 = Asciz	()Lscala/collection/Iterable;;
const #124 = Asciz	()Lscala/collection/Traversable;;
const #125 = Asciz	toCollection;
const #126 = Asciz	(Ljava/lang/Object;)Lscala/collection/mutable/IndexedSeq;;
const #127 = Asciz	(Lscala/collection/mutable/WrappedArray;)Lscala/collection/mutable/WrappedArray;;
const #128 = NameAndType	#125:#127;//  toCollection:(Lscala/collection/mutable/WrappedArray;)Lscala/collection/mutable/WrappedArray;
const #129 = Method	#117.#128;	//  scala/collection/mutable/WrappedArray.toCollection:(Lscala/collection/mutable/WrappedArray;)Lscala/collection/mutable/WrappedArray;
const #130 = Asciz	this;
const #131 = Asciz	Lscala/collection/mutable/WrappedArray;;
const #132 = Asciz	repr;
const #133 = Asciz	Ljava/lang/Object;;
const #134 = Asciz	LocalVariableTable;
const #135 = Asciz	(Ljava/lang/Object;)Lscala/collection/IndexedSeq;;
const #136 = Asciz	(Ljava/lang/Object;)Lscala/collection/Seq;;
const #137 = Asciz	(Ljava/lang/Object;)Lscala/collection/Iterable;;
const #138 = Asciz	(Ljava/lang/Object;)Lscala/collection/Traversable;;
const #139 = Asciz	view;
const #140 = Asciz	(II)Lscala/collection/IndexedSeqView;;
const #141 = Asciz	scala/collection/mutable/IndexedSeqLike;
const #142 = class	#141;	//  scala/collection/mutable/IndexedSeqLike
const #143 = Asciz	(II)Lscala/collection/mutable/IndexedSeqView;;
const #144 = NameAndType	#139:#143;//  view:(II)Lscala/collection/mutable/IndexedSeqView;
const #145 = InterfaceMethod	#142.#144;	//  scala/collection/mutable/IndexedSeqLike.view:(II)Lscala/collection/mutable/IndexedSeqView;
const #146 = Asciz	from;
const #147 = Asciz	I;
const #148 = Asciz	until;
const #149 = Asciz	(II)Lscala/collection/SeqView;;
const #150 = Asciz	(II)Lscala/collection/IterableView;;
const #151 = Asciz	(II)Lscala/collection/TraversableView;;
const #152 = Asciz	isDefinedAt;
const #153 = Asciz	(Ljava/lang/Object;)Z;
const #154 = Asciz	scala/runtime/BoxesRunTime;
const #155 = class	#154;	//  scala/runtime/BoxesRunTime
const #156 = Asciz	unboxToInt;
const #157 = Asciz	(Ljava/lang/Object;)I;
const #158 = NameAndType	#156:#157;//  unboxToInt:(Ljava/lang/Object;)I
const #159 = Method	#155.#158;	//  scala/runtime/BoxesRunTime.unboxToInt:(Ljava/lang/Object;)I
const #160 = Asciz	scala/collection/SeqLike;
const #161 = class	#160;	//  scala/collection/SeqLike
const #162 = Asciz	(I)Z;
const #163 = NameAndType	#152:#162;//  isDefinedAt:(I)Z
const #164 = InterfaceMethod	#161.#163;	//  scala/collection/SeqLike.isDefinedAt:(I)Z
const #165 = Asciz	x;
const #166 = Asciz	andThen;
const #167 = Asciz	(Lscala/Function1;)Lscala/Function1;;
const #168 = Asciz	scala/PartialFunction;
const #169 = class	#168;	//  scala/PartialFunction
const #170 = Asciz	(Lscala/Function1;)Lscala/PartialFunction;;
const #171 = NameAndType	#166:#170;//  andThen:(Lscala/Function1;)Lscala/PartialFunction;
const #172 = InterfaceMethod	#169.#171;	//  scala/PartialFunction.andThen:(Lscala/Function1;)Lscala/PartialFunction;
const #173 = Asciz	g;
const #174 = Asciz	Lscala/Function1;;
const #175 = Asciz	newBuilder;
const #176 = Asciz	()Lscala/collection/mutable/Builder;;
const #177 = Asciz	scala/collection/mutable/WrappedArrayBuilder;
const #178 = class	#177;	//  scala/collection/mutable/WrappedArrayBuilder
const #179 = Asciz	elemManifest;
const #180 = Asciz	()Lscala/reflect/ClassManifest;;
const #181 = NameAndType	#179:#180;//  elemManifest:()Lscala/reflect/ClassManifest;
const #182 = Method	#117.#181;	//  scala/collection/mutable/WrappedArray.elemManifest:()Lscala/reflect/ClassManifest;
const #183 = Asciz	(Lscala/reflect/ClassManifest;)V;
const #184 = NameAndType	#21:#183;//  "<init>":(Lscala/reflect/ClassManifest;)V
const #185 = Method	#178.#184;	//  scala/collection/mutable/WrappedArrayBuilder."<init>":(Lscala/reflect/ClassManifest;)V
const #186 = Asciz	()Lscala/collection/mutable/Builder<TT;Lscala/collection/mutable/WrappedArray<TT;>;>;;
const #187 = Asciz	stringPrefix;
const #188 = Asciz	()Ljava/lang/String;;
const #189 = Asciz	WrappedArray;
const #190 = String	#189;	//  WrappedArray
const #191 = Asciz	array;
const #192 = Asciz	()Ljava/lang/Object;;
const #193 = Asciz	()[TT;;
const #194 = Asciz	update;
const #195 = Asciz	(ILjava/lang/Object;)V;
const #196 = Asciz	(ITT;)V;
const #197 = Asciz	apply;
const #198 = Asciz	(I)Ljava/lang/Object;;
const #199 = Asciz	(I)TT;;
const #200 = Asciz	length;
const #201 = Asciz	()I;
const #202 = Asciz	()Lscala/reflect/ClassManifest<TT;>;;
const #203 = Asciz	(Lscala/collection/mutable/WrappedArray<TT;>;)Lscala/collection/mutable/WrappedArray<TT;>;;
const #204 = Asciz	()Lscala/collection/mutable/WrappedArray<TT;>;;
const #205 = Asciz	withFilter;
const #206 = Asciz	(Lscala/Function1;)Lscala/collection/TraversableLike$WithFilter;;
const #207 = Asciz	(Lscala/collection/TraversableLike;Lscala/Function1;)Lscala/collection/TraversableLike$WithFilter;;
const #208 = NameAndType	#205:#207;//  withFilter:(Lscala/collection/TraversableLike;Lscala/Function1;)Lscala/collection/TraversableLike$WithFilter;
const #209 = Method	#29.#208;	//  scala/collection/TraversableLike$class.withFilter:(Lscala/collection/TraversableLike;Lscala/Function1;)Lscala/collection/TraversableLike$WithFilter;
const #210 = Asciz	p;
const #211 = Asciz	addString;
const #212 = Asciz	(Lscala/collection/mutable/StringBuilder;)Lscala/collection/mutable/StringBuilder;;
const #213 = Asciz	(Lscala/collection/TraversableLike;Lscala/collection/mutable/StringBuilder;)Lscala/collection/mutable/StringBuilder;;
const #214 = NameAndType	#211:#213;//  addString:(Lscala/collection/TraversableLike;Lscala/collection/mutable/StringBuilder;)Lscala/collection/mutable/StringBuilder;
const #215 = Method	#29.#214;	//  scala/collection/TraversableLike$class.addString:(Lscala/collection/TraversableLike;Lscala/collection/mutable/StringBuilder;)Lscala/collection/mutable/StringBuilder;
const #216 = Asciz	b;
const #217 = Asciz	Lscala/collection/mutable/StringBuilder;;
const #218 = Asciz	(Lscala/collection/mutable/StringBuilder;Ljava/lang/String;)Lscala/collection/mutable/StringBuilder;;
const #219 = Asciz	(Lscala/collection/TraversableLike;Lscala/collection/mutable/StringBuilder;Ljava/lang/String;)Lscala/collection/mutable/StringBuilder;;
const #220 = NameAndType	#211:#219;//  addString:(Lscala/collection/TraversableLike;Lscala/collection/mutable/StringBuilder;Ljava/lang/String;)Lscala/collection/mutable/StringBuilder;
const #221 = Method	#29.#220;	//  scala/collection/TraversableLike$class.addString:(Lscala/collection/TraversableLike;Lscala/collection/mutable/StringBuilder;Ljava/lang/String;)Lscala/collection/mutable/StringBuilder;
const #222 = Asciz	sep;
const #223 = Asciz	Ljava/lang/String;;
const #224 = Asciz	(Lscala/collection/mutable/StringBuilder;Ljava/lang/String;Ljava/lang/String;Ljava/lang/String;)Lscala/collection/mutable/StringBuilder;;
const #225 = Asciz	(Lscala/collection/TraversableLike;Lscala/collection/mutable/StringBuilder;Ljava/lang/String;Ljava/lang/String;Ljava/lang/String;)Lscala/collection/mutable/StringBuilder;;
const #226 = NameAndType	#211:#225;//  addString:(Lscala/collection/TraversableLike;Lscala/collection/mutable/StringBuilder;Ljava/lang/String;Ljava/lang/String;Ljava/lang/String;)Lscala/collection/mutable/StringBuilder;
const #227 = Method	#29.#226;	//  scala/collection/TraversableLike$class.addString:(Lscala/collection/TraversableLike;Lscala/collection/mutable/StringBuilder;Ljava/lang/String;Ljava/lang/String;Ljava/lang/String;)Lscala/collection/mutable/StringBuilder;
const #228 = Asciz	start;
const #229 = Asciz	end;
const #230 = Asciz	mkString;
const #231 = Asciz	(Lscala/collection/TraversableLike;)Ljava/lang/String;;
const #232 = NameAndType	#230:#231;//  mkString:(Lscala/collection/TraversableLike;)Ljava/lang/String;
const #233 = Method	#29.#232;	//  scala/collection/TraversableLike$class.mkString:(Lscala/collection/TraversableLike;)Ljava/lang/String;
const #234 = Asciz	(Ljava/lang/String;)Ljava/lang/String;;
const #235 = Asciz	(Lscala/collection/TraversableLike;Ljava/lang/String;)Ljava/lang/String;;
const #236 = NameAndType	#230:#235;//  mkString:(Lscala/collection/TraversableLike;Ljava/lang/String;)Ljava/lang/String;
const #237 = Method	#29.#236;	//  scala/collection/TraversableLike$class.mkString:(Lscala/collection/TraversableLike;Ljava/lang/String;)Ljava/lang/String;
const #238 = Asciz	(Ljava/lang/String;Ljava/lang/String;Ljava/lang/String;)Ljava/lang/String;;
const #239 = Asciz	(Lscala/collection/TraversableLike;Ljava/lang/String;Ljava/lang/String;Ljava/lang/String;)Ljava/lang/String;;
const #240 = NameAndType	#230:#239;//  mkString:(Lscala/collection/TraversableLike;Ljava/lang/String;Ljava/lang/String;Ljava/lang/String;)Ljava/lang/String;
const #241 = Method	#29.#240;	//  scala/collection/TraversableLike$class.mkString:(Lscala/collection/TraversableLike;Ljava/lang/String;Ljava/lang/String;Ljava/lang/String;)Ljava/lang/String;
const #242 = Asciz	toSet;
const #243 = Asciz	()Lscala/collection/immutable/Set;;
const #244 = Asciz	(Lscala/collection/TraversableLike;)Lscala/collection/immutable/Set;;
const #245 = NameAndType	#242:#244;//  toSet:(Lscala/collection/TraversableLike;)Lscala/collection/immutable/Set;
const #246 = Method	#29.#245;	//  scala/collection/TraversableLike$class.toSet:(Lscala/collection/TraversableLike;)Lscala/collection/immutable/Set;
const #247 = Asciz	toIndexedSeq;
const #248 = Asciz	(Lscala/collection/TraversableLike;)Lscala/collection/mutable/IndexedSeq;;
const #249 = NameAndType	#247:#248;//  toIndexedSeq:(Lscala/collection/TraversableLike;)Lscala/collection/mutable/IndexedSeq;
const #250 = Method	#29.#249;	//  scala/collection/TraversableLike$class.toIndexedSeq:(Lscala/collection/TraversableLike;)Lscala/collection/mutable/IndexedSeq;
const #251 = Asciz	toList;
const #252 = Asciz	()Lscala/collection/immutable/List;;
const #253 = Asciz	(Lscala/collection/TraversableLike;)Lscala/collection/immutable/List;;
const #254 = NameAndType	#251:#253;//  toList:(Lscala/collection/TraversableLike;)Lscala/collection/immutable/List;
const #255 = Method	#29.#254;	//  scala/collection/TraversableLike$class.toList:(Lscala/collection/TraversableLike;)Lscala/collection/immutable/List;
const #256 = Asciz	toArray;
const #257 = Asciz	(Lscala/reflect/ClassManifest;)Ljava/lang/Object;;
const #258 = Asciz	(Lscala/collection/TraversableLike;Lscala/reflect/ClassManifest;)Ljava/lang/Object;;
const #259 = NameAndType	#256:#258;//  toArray:(Lscala/collection/TraversableLike;Lscala/reflect/ClassManifest;)Ljava/lang/Object;
const #260 = Method	#29.#259;	//  scala/collection/TraversableLike$class.toArray:(Lscala/collection/TraversableLike;Lscala/reflect/ClassManifest;)Ljava/lang/Object;
const #261 = Asciz	evidence$1;
const #262 = Asciz	Lscala/reflect/ClassManifest;;
const #263 = Asciz	copyToArray;
const #264 = Asciz	(Ljava/lang/Object;I)V;
const #265 = Asciz	(Lscala/collection/TraversableLike;Ljava/lang/Object;I)V;
const #266 = NameAndType	#263:#265;//  copyToArray:(Lscala/collection/TraversableLike;Ljava/lang/Object;I)V
const #267 = Method	#29.#266;	//  scala/collection/TraversableLike$class.copyToArray:(Lscala/collection/TraversableLike;Ljava/lang/Object;I)V
const #268 = Asciz	xs;
const #269 = Asciz	copyToBuffer;
const #270 = Asciz	(Lscala/collection/mutable/Buffer;)V;
const #271 = Asciz	(Lscala/collection/TraversableLike;Lscala/collection/mutable/Buffer;)V;
const #272 = NameAndType	#269:#271;//  copyToBuffer:(Lscala/collection/TraversableLike;Lscala/collection/mutable/Buffer;)V
const #273 = Method	#29.#272;	//  scala/collection/TraversableLike$class.copyToBuffer:(Lscala/collection/TraversableLike;Lscala/collection/mutable/Buffer;)V
const #274 = Asciz	dest;
const #275 = Asciz	Lscala/collection/mutable/Buffer;;
const #276 = Asciz	lastOption;
const #277 = Asciz	()Lscala/Option;;
const #278 = Asciz	(Lscala/collection/TraversableLike;)Lscala/Option;;
const #279 = NameAndType	#276:#278;//  lastOption:(Lscala/collection/TraversableLike;)Lscala/Option;
const #280 = Method	#29.#279;	//  scala/collection/TraversableLike$class.lastOption:(Lscala/collection/TraversableLike;)Lscala/Option;
const #281 = Asciz	headOption;
const #282 = NameAndType	#281:#278;//  headOption:(Lscala/collection/TraversableLike;)Lscala/Option;
const #283 = Method	#29.#282;	//  scala/collection/TraversableLike$class.headOption:(Lscala/collection/TraversableLike;)Lscala/Option;
const #284 = Asciz	max;
const #285 = Asciz	(Lscala/math/Ordering;)Ljava/lang/Object;;
const #286 = Asciz	(Lscala/collection/TraversableLike;Lscala/math/Ordering;)Ljava/lang/Object;;
const #287 = NameAndType	#284:#286;//  max:(Lscala/collection/TraversableLike;Lscala/math/Ordering;)Ljava/lang/Object;
const #288 = Method	#29.#287;	//  scala/collection/TraversableLike$class.max:(Lscala/collection/TraversableLike;Lscala/math/Ordering;)Ljava/lang/Object;
const #289 = Asciz	cmp;
const #290 = Asciz	Lscala/math/Ordering;;
const #291 = Asciz	min;
const #292 = NameAndType	#291:#286;//  min:(Lscala/collection/TraversableLike;Lscala/math/Ordering;)Ljava/lang/Object;
const #293 = Method	#29.#292;	//  scala/collection/TraversableLike$class.min:(Lscala/collection/TraversableLike;Lscala/math/Ordering;)Ljava/lang/Object;
const #294 = Asciz	product;
const #295 = Asciz	(Lscala/math/Numeric;)Ljava/lang/Object;;
const #296 = Asciz	(Lscala/collection/TraversableLike;Lscala/math/Numeric;)Ljava/lang/Object;;
const #297 = NameAndType	#294:#296;//  product:(Lscala/collection/TraversableLike;Lscala/math/Numeric;)Ljava/lang/Object;
const #298 = Method	#29.#297;	//  scala/collection/TraversableLike$class.product:(Lscala/collection/TraversableLike;Lscala/math/Numeric;)Ljava/lang/Object;
const #299 = Asciz	num;
const #300 = Asciz	Lscala/math/Numeric;;
const #301 = Asciz	sum;
const #302 = NameAndType	#301:#296;//  sum:(Lscala/collection/TraversableLike;Lscala/math/Numeric;)Ljava/lang/Object;
const #303 = Method	#29.#302;	//  scala/collection/TraversableLike$class.sum:(Lscala/collection/TraversableLike;Lscala/math/Numeric;)Ljava/lang/Object;
const #304 = Asciz	reduceRightOption;
const #305 = Asciz	(Lscala/Function2;)Lscala/Option;;
const #306 = Asciz	(Lscala/collection/TraversableLike;Lscala/Function2;)Lscala/Option;;
const #307 = NameAndType	#304:#306;//  reduceRightOption:(Lscala/collection/TraversableLike;Lscala/Function2;)Lscala/Option;
const #308 = Method	#29.#307;	//  scala/collection/TraversableLike$class.reduceRightOption:(Lscala/collection/TraversableLike;Lscala/Function2;)Lscala/Option;
const #309 = Asciz	op;
const #310 = Asciz	Lscala/Function2;;
const #311 = Asciz	reduceLeftOption;
const #312 = NameAndType	#311:#306;//  reduceLeftOption:(Lscala/collection/TraversableLike;Lscala/Function2;)Lscala/Option;
const #313 = Method	#29.#312;	//  scala/collection/TraversableLike$class.reduceLeftOption:(Lscala/collection/TraversableLike;Lscala/Function2;)Lscala/Option;
const #314 = Asciz	$colon$bslash;
const #315 = Asciz	(Ljava/lang/Object;Lscala/Function2;)Ljava/lang/Object;;
const #316 = Asciz	(Lscala/collection/TraversableLike;Ljava/lang/Object;Lscala/Function2;)Ljava/lang/Object;;
const #317 = NameAndType	#314:#316;//  $colon$bslash:(Lscala/collection/TraversableLike;Ljava/lang/Object;Lscala/Function2;)Ljava/lang/Object;
const #318 = Method	#29.#317;	//  scala/collection/TraversableLike$class.$colon$bslash:(Lscala/collection/TraversableLike;Ljava/lang/Object;Lscala/Function2;)Ljava/lang/Object;
const #319 = Asciz	z;
const #320 = Asciz	$div$colon;
const #321 = NameAndType	#320:#316;//  $div$colon:(Lscala/collection/TraversableLike;Ljava/lang/Object;Lscala/Function2;)Ljava/lang/Object;
const #322 = Method	#29.#321;	//  scala/collection/TraversableLike$class.$div$colon:(Lscala/collection/TraversableLike;Ljava/lang/Object;Lscala/Function2;)Ljava/lang/Object;
const #323 = Asciz	count;
const #324 = Asciz	(Lscala/Function1;)I;
const #325 = Asciz	(Lscala/collection/TraversableLike;Lscala/Function1;)I;
const #326 = NameAndType	#323:#325;//  count:(Lscala/collection/TraversableLike;Lscala/Function1;)I
const #327 = Method	#29.#326;	//  scala/collection/TraversableLike$class.count:(Lscala/collection/TraversableLike;Lscala/Function1;)I
const #328 = Asciz	groupBy;
const #329 = Asciz	(Lscala/Function1;)Lscala/collection/Map;;
const #330 = Asciz	(Lscala/collection/TraversableLike;Lscala/Function1;)Lscala/collection/Map;;
const #331 = NameAndType	#328:#330;//  groupBy:(Lscala/collection/TraversableLike;Lscala/Function1;)Lscala/collection/Map;
const #332 = Method	#29.#331;	//  scala/collection/TraversableLike$class.groupBy:(Lscala/collection/TraversableLike;Lscala/Function1;)Lscala/collection/Map;
const #333 = Asciz	f;
const #334 = Asciz	partition;
const #335 = Asciz	(Lscala/Function1;)Lscala/Tuple2;;
const #336 = Asciz	(Lscala/collection/TraversableLike;Lscala/Function1;)Lscala/Tuple2;;
const #337 = NameAndType	#334:#336;//  partition:(Lscala/collection/TraversableLike;Lscala/Function1;)Lscala/Tuple2;
const #338 = Method	#29.#337;	//  scala/collection/TraversableLike$class.partition:(Lscala/collection/TraversableLike;Lscala/Function1;)Lscala/Tuple2;
const #339 = Asciz	partialMap;
const #340 = Asciz	(Lscala/PartialFunction;Lscala/collection/generic/CanBuildFrom;)Ljava/lang/Object;;
const #341 = Asciz	(Lscala/collection/TraversableLike;Lscala/PartialFunction;Lscala/collection/generic/CanBuildFrom;)Ljava/lang/Object;;
const #342 = NameAndType	#339:#341;//  partialMap:(Lscala/collection/TraversableLike;Lscala/PartialFunction;Lscala/collection/generic/CanBuildFrom;)Ljava/lang/Object;
const #343 = Method	#29.#342;	//  scala/collection/TraversableLike$class.partialMap:(Lscala/collection/TraversableLike;Lscala/PartialFunction;Lscala/collection/generic/CanBuildFrom;)Ljava/lang/Object;
const #344 = Asciz	pf;
const #345 = Asciz	Lscala/PartialFunction;;
const #346 = Asciz	bf;
const #347 = Asciz	Lscala/collection/generic/CanBuildFrom;;
const #348 = Asciz	filterNot;
const #349 = Asciz	(Lscala/Function1;)Ljava/lang/Object;;
const #350 = Asciz	(Lscala/collection/TraversableLike;Lscala/Function1;)Ljava/lang/Object;;
const #351 = NameAndType	#348:#350;//  filterNot:(Lscala/collection/TraversableLike;Lscala/Function1;)Ljava/lang/Object;
const #352 = Method	#29.#351;	//  scala/collection/TraversableLike$class.filterNot:(Lscala/collection/TraversableLike;Lscala/Function1;)Ljava/lang/Object;
const #353 = Asciz	filter;
const #354 = NameAndType	#353:#350;//  filter:(Lscala/collection/TraversableLike;Lscala/Function1;)Ljava/lang/Object;
const #355 = Method	#29.#354;	//  scala/collection/TraversableLike$class.filter:(Lscala/collection/TraversableLike;Lscala/Function1;)Ljava/lang/Object;
const #356 = Asciz	flatMap;
const #357 = Asciz	(Lscala/Function1;Lscala/collection/generic/CanBuildFrom;)Ljava/lang/Object;;
const #358 = Asciz	(Lscala/collection/TraversableLike;Lscala/Function1;Lscala/collection/generic/CanBuildFrom;)Ljava/lang/Object;;
const #359 = NameAndType	#356:#358;//  flatMap:(Lscala/collection/TraversableLike;Lscala/Function1;Lscala/collection/generic/CanBuildFrom;)Ljava/lang/Object;
const #360 = Method	#29.#359;	//  scala/collection/TraversableLike$class.flatMap:(Lscala/collection/TraversableLike;Lscala/Function1;Lscala/collection/generic/CanBuildFrom;)Ljava/lang/Object;
const #361 = Asciz	map;
const #362 = NameAndType	#361:#358;//  map:(Lscala/collection/TraversableLike;Lscala/Function1;Lscala/collection/generic/CanBuildFrom;)Ljava/lang/Object;
const #363 = Method	#29.#362;	//  scala/collection/TraversableLike$class.map:(Lscala/collection/TraversableLike;Lscala/Function1;Lscala/collection/generic/CanBuildFrom;)Ljava/lang/Object;
const #364 = Asciz	$plus$plus;
const #365 = Asciz	(Lscala/collection/Iterator;Lscala/collection/generic/CanBuildFrom;)Ljava/lang/Object;;
const #366 = Asciz	(Lscala/collection/TraversableLike;Lscala/collection/Iterator;Lscala/collection/generic/CanBuildFrom;)Ljava/lang/Object;;
const #367 = NameAndType	#364:#366;//  $plus$plus:(Lscala/collection/TraversableLike;Lscala/collection/Iterator;Lscala/collection/generic/CanBuildFrom;)Ljava/lang/Object;
const #368 = Method	#29.#367;	//  scala/collection/TraversableLike$class.$plus$plus:(Lscala/collection/TraversableLike;Lscala/collection/Iterator;Lscala/collection/generic/CanBuildFrom;)Ljava/lang/Object;
const #369 = Asciz	that;
const #370 = Asciz	Lscala/collection/Iterator;;
const #371 = Asciz	(Lscala/collection/Traversable;Lscala/collection/generic/CanBuildFrom;)Ljava/lang/Object;;
const #372 = Asciz	(Lscala/collection/TraversableLike;Lscala/collection/Traversable;Lscala/collection/generic/CanBuildFrom;)Ljava/lang/Object;;
const #373 = NameAndType	#364:#372;//  $plus$plus:(Lscala/collection/TraversableLike;Lscala/collection/Traversable;Lscala/collection/generic/CanBuildFrom;)Ljava/lang/Object;
const #374 = Method	#29.#373;	//  scala/collection/TraversableLike$class.$plus$plus:(Lscala/collection/TraversableLike;Lscala/collection/Traversable;Lscala/collection/generic/CanBuildFrom;)Ljava/lang/Object;
const #375 = Asciz	Lscala/collection/Traversable;;
const #376 = Asciz	hasDefiniteSize;
const #377 = Asciz	()Z;
const #378 = Asciz	(Lscala/collection/TraversableLike;)Z;
const #379 = NameAndType	#376:#378;//  hasDefiniteSize:(Lscala/collection/TraversableLike;)Z
const #380 = Method	#29.#379;	//  scala/collection/TraversableLike$class.hasDefiniteSize:(Lscala/collection/TraversableLike;)Z
const #381 = Asciz	nonEmpty;
const #382 = NameAndType	#381:#378;//  nonEmpty:(Lscala/collection/TraversableLike;)Z
const #383 = Method	#29.#382;	//  scala/collection/TraversableLike$class.nonEmpty:(Lscala/collection/TraversableLike;)Z
const #384 = Asciz	(Lscala/collection/TraversableLike;)Ljava/lang/Object;;
const #385 = NameAndType	#132:#384;//  repr:(Lscala/collection/TraversableLike;)Ljava/lang/Object;
const #386 = Method	#29.#385;	//  scala/collection/TraversableLike$class.repr:(Lscala/collection/TraversableLike;)Ljava/lang/Object;
const #387 = Asciz	transpose;
const #388 = Asciz	(Lscala/Function1;)Lscala/collection/Traversable;;
const #389 = Asciz	(Lscala/collection/generic/GenericTraversableTemplate;Lscala/Function1;)Lscala/collection/Traversable;;
const #390 = NameAndType	#387:#389;//  transpose:(Lscala/collection/generic/GenericTraversableTemplate;Lscala/Function1;)Lscala/collection/Traversable;
const #391 = Method	#35.#390;	//  scala/collection/generic/GenericTraversableTemplate$class.transpose:(Lscala/collection/generic/GenericTraversableTemplate;Lscala/Function1;)Lscala/collection/Traversable;
const #392 = Asciz	asTraversable;
const #393 = Asciz	flatten;
const #394 = NameAndType	#393:#389;//  flatten:(Lscala/collection/generic/GenericTraversableTemplate;Lscala/Function1;)Lscala/collection/Traversable;
const #395 = Method	#35.#394;	//  scala/collection/generic/GenericTraversableTemplate$class.flatten:(Lscala/collection/generic/GenericTraversableTemplate;Lscala/Function1;)Lscala/collection/Traversable;
const #396 = Asciz	unzip;
const #397 = Asciz	(Lscala/collection/generic/GenericTraversableTemplate;Lscala/Function1;)Lscala/Tuple2;;
const #398 = NameAndType	#396:#397;//  unzip:(Lscala/collection/generic/GenericTraversableTemplate;Lscala/Function1;)Lscala/Tuple2;
const #399 = Method	#35.#398;	//  scala/collection/generic/GenericTraversableTemplate$class.unzip:(Lscala/collection/generic/GenericTraversableTemplate;Lscala/Function1;)Lscala/Tuple2;
const #400 = Asciz	asPair;
const #401 = Asciz	genericBuilder;
const #402 = Asciz	(Lscala/collection/generic/GenericTraversableTemplate;)Lscala/collection/mutable/Builder;;
const #403 = NameAndType	#401:#402;//  genericBuilder:(Lscala/collection/generic/GenericTraversableTemplate;)Lscala/collection/mutable/Builder;
const #404 = Method	#35.#403;	//  scala/collection/generic/GenericTraversableTemplate$class.genericBuilder:(Lscala/collection/generic/GenericTraversableTemplate;)Lscala/collection/mutable/Builder;
const #405 = Asciz	firstOption;
const #406 = Asciz	(Lscala/collection/IterableLike;)Lscala/Option;;
const #407 = NameAndType	#405:#406;//  firstOption:(Lscala/collection/IterableLike;)Lscala/Option;
const #408 = Method	#50.#407;	//  scala/collection/IterableLike$class.firstOption:(Lscala/collection/IterableLike;)Lscala/Option;
const #409 = Asciz	first;
const #410 = Asciz	(Lscala/collection/IterableLike;)Ljava/lang/Object;;
const #411 = NameAndType	#409:#410;//  first:(Lscala/collection/IterableLike;)Ljava/lang/Object;
const #412 = Method	#50.#411;	//  scala/collection/IterableLike$class.first:(Lscala/collection/IterableLike;)Ljava/lang/Object;
const #413 = Asciz	canEqual;
const #414 = Asciz	(Lscala/collection/IterableLike;Ljava/lang/Object;)Z;
const #415 = NameAndType	#413:#414;//  canEqual:(Lscala/collection/IterableLike;Ljava/lang/Object;)Z
const #416 = Method	#50.#415;	//  scala/collection/IterableLike$class.canEqual:(Lscala/collection/IterableLike;Ljava/lang/Object;)Z
const #417 = Asciz	toStream;
const #418 = Asciz	()Lscala/collection/immutable/Stream;;
const #419 = Asciz	(Lscala/collection/IterableLike;)Lscala/collection/immutable/Stream;;
const #420 = NameAndType	#417:#419;//  toStream:(Lscala/collection/IterableLike;)Lscala/collection/immutable/Stream;
const #421 = Method	#50.#420;	//  scala/collection/IterableLike$class.toStream:(Lscala/collection/IterableLike;)Lscala/collection/immutable/Stream;
const #422 = Asciz	zipAll;
const #423 = Asciz	(Lscala/collection/Iterable;Ljava/lang/Object;Ljava/lang/Object;Lscala/collection/generic/CanBuildFrom;)Ljava/lang/Object;;
const #424 = Asciz	(Lscala/collection/IterableLike;Lscala/collection/Iterable;Ljava/lang/Object;Ljava/lang/Object;Lscala/collection/generic/CanBuildFrom;)Ljava/lang/Object;;
const #425 = NameAndType	#422:#424;//  zipAll:(Lscala/collection/IterableLike;Lscala/collection/Iterable;Ljava/lang/Object;Ljava/lang/Object;Lscala/collection/generic/CanBuildFrom;)Ljava/lang/Object;
const #426 = Method	#50.#425;	//  scala/collection/IterableLike$class.zipAll:(Lscala/collection/IterableLike;Lscala/collection/Iterable;Ljava/lang/Object;Ljava/lang/Object;Lscala/collection/generic/CanBuildFrom;)Ljava/lang/Object;
const #427 = Asciz	Lscala/collection/Iterable;;
const #428 = Asciz	thisElem;
const #429 = Asciz	thatElem;
const #430 = Asciz	toIterable;
const #431 = Asciz	(Lscala/collection/IterableLike;)Lscala/collection/Iterable;;
const #432 = NameAndType	#430:#431;//  toIterable:(Lscala/collection/IterableLike;)Lscala/collection/Iterable;
const #433 = Method	#50.#432;	//  scala/collection/IterableLike$class.toIterable:(Lscala/collection/IterableLike;)Lscala/collection/Iterable;
const #434 = Asciz	elements;
const #435 = Asciz	()Lscala/collection/Iterator;;
const #436 = Asciz	(Lscala/collection/IterableLike;)Lscala/collection/Iterator;;
const #437 = NameAndType	#434:#436;//  elements:(Lscala/collection/IterableLike;)Lscala/collection/Iterator;
const #438 = Method	#50.#437;	//  scala/collection/IterableLike$class.elements:(Lscala/collection/IterableLike;)Lscala/collection/Iterator;
const #439 = Asciz	compose;
const #440 = Asciz	(Lscala/Function1;Lscala/Function1;)Lscala/Function1;;
const #441 = NameAndType	#439:#440;//  compose:(Lscala/Function1;Lscala/Function1;)Lscala/Function1;
const #442 = Method	#65.#441;	//  scala/Function1$class.compose:(Lscala/Function1;Lscala/Function1;)Lscala/Function1;
const #443 = Asciz	(Lscala/PartialFunction;Lscala/Function1;)Lscala/PartialFunction;;
const #444 = NameAndType	#166:#443;//  andThen:(Lscala/PartialFunction;Lscala/Function1;)Lscala/PartialFunction;
const #445 = Method	#70.#444;	//  scala/PartialFunction$class.andThen:(Lscala/PartialFunction;Lscala/Function1;)Lscala/PartialFunction;
const #446 = Asciz	k;
const #447 = Asciz	orElse;
const #448 = Asciz	(Lscala/PartialFunction;)Lscala/PartialFunction;;
const #449 = Asciz	(Lscala/PartialFunction;Lscala/PartialFunction;)Lscala/PartialFunction;;
const #450 = NameAndType	#447:#449;//  orElse:(Lscala/PartialFunction;Lscala/PartialFunction;)Lscala/PartialFunction;
const #451 = Method	#70.#450;	//  scala/PartialFunction$class.orElse:(Lscala/PartialFunction;Lscala/PartialFunction;)Lscala/PartialFunction;
const #452 = Asciz	projection;
const #453 = Asciz	(Lscala/collection/SeqLike;)Ljava/lang/Object;;
const #454 = NameAndType	#452:#453;//  projection:(Lscala/collection/SeqLike;)Ljava/lang/Object;
const #455 = Method	#75.#454;	//  scala/collection/SeqLike$class.projection:(Lscala/collection/SeqLike;)Ljava/lang/Object;
const #456 = Asciz	containsSlice;
const #457 = Asciz	(Lscala/collection/Seq;)Z;
const #458 = Asciz	(Lscala/collection/SeqLike;Lscala/collection/Seq;)Z;
const #459 = NameAndType	#456:#458;//  containsSlice:(Lscala/collection/SeqLike;Lscala/collection/Seq;)Z
const #460 = Method	#75.#459;	//  scala/collection/SeqLike$class.containsSlice:(Lscala/collection/SeqLike;Lscala/collection/Seq;)Z
const #461 = Asciz	Lscala/collection/Seq;;
const #462 = Asciz	equalsWith;
const #463 = Asciz	(Lscala/collection/Seq;Lscala/Function2;)Z;
const #464 = Asciz	(Lscala/collection/SeqLike;Lscala/collection/Seq;Lscala/Function2;)Z;
const #465 = NameAndType	#462:#464;//  equalsWith:(Lscala/collection/SeqLike;Lscala/collection/Seq;Lscala/Function2;)Z
const #466 = Method	#75.#465;	//  scala/collection/SeqLike$class.equalsWith:(Lscala/collection/SeqLike;Lscala/collection/Seq;Lscala/Function2;)Z
const #467 = Asciz	findLastIndexOf;
const #468 = Asciz	(Lscala/collection/SeqLike;Lscala/Function1;)I;
const #469 = NameAndType	#467:#468;//  findLastIndexOf:(Lscala/collection/SeqLike;Lscala/Function1;)I
const #470 = Method	#75.#469;	//  scala/collection/SeqLike$class.findLastIndexOf:(Lscala/collection/SeqLike;Lscala/Function1;)I
const #471 = Asciz	toString;
const #472 = Asciz	(Lscala/collection/SeqLike;)Ljava/lang/String;;
const #473 = NameAndType	#471:#472;//  toString:(Lscala/collection/SeqLike;)Ljava/lang/String;
const #474 = Method	#75.#473;	//  scala/collection/SeqLike$class.toString:(Lscala/collection/SeqLike;)Ljava/lang/String;
const #475 = Asciz	equals;
const #476 = Asciz	(Lscala/collection/SeqLike;Ljava/lang/Object;)Z;
const #477 = NameAndType	#475:#476;//  equals:(Lscala/collection/SeqLike;Ljava/lang/Object;)Z
const #478 = Method	#75.#477;	//  scala/collection/SeqLike$class.equals:(Lscala/collection/SeqLike;Ljava/lang/Object;)Z
const #479 = Asciz	hashCode;
const #480 = Asciz	(Lscala/collection/SeqLike;)I;
const #481 = NameAndType	#479:#480;//  hashCode:(Lscala/collection/SeqLike;)I
const #482 = Method	#75.#481;	//  scala/collection/SeqLike$class.hashCode:(Lscala/collection/SeqLike;)I
const #483 = Asciz	indices;
const #484 = Asciz	()Lscala/collection/immutable/Range;;
const #485 = Asciz	(Lscala/collection/SeqLike;)Lscala/collection/immutable/Range;;
const #486 = NameAndType	#483:#485;//  indices:(Lscala/collection/SeqLike;)Lscala/collection/immutable/Range;
const #487 = Method	#75.#486;	//  scala/collection/SeqLike$class.indices:(Lscala/collection/SeqLike;)Lscala/collection/immutable/Range;
const #488 = Asciz	toSeq;
const #489 = Asciz	(Lscala/collection/SeqLike;)Lscala/collection/Seq;;
const #490 = NameAndType	#488:#489;//  toSeq:(Lscala/collection/SeqLike;)Lscala/collection/Seq;
const #491 = Method	#75.#490;	//  scala/collection/SeqLike$class.toSeq:(Lscala/collection/SeqLike;)Lscala/collection/Seq;
const #492 = Asciz	sortBy;
const #493 = Asciz	(Lscala/Function1;Lscala/math/Ordering;)Ljava/lang/Object;;
const #494 = Asciz	(Lscala/collection/SeqLike;Lscala/Function1;Lscala/math/Ordering;)Ljava/lang/Object;;
const #495 = NameAndType	#492:#494;//  sortBy:(Lscala/collection/SeqLike;Lscala/Function1;Lscala/math/Ordering;)Ljava/lang/Object;
const #496 = Method	#75.#495;	//  scala/collection/SeqLike$class.sortBy:(Lscala/collection/SeqLike;Lscala/Function1;Lscala/math/Ordering;)Ljava/lang/Object;
const #497 = Asciz	ord;
const #498 = Asciz	sortWith;
const #499 = Asciz	(Lscala/collection/SeqLike;Lscala/math/Ordering;)Ljava/lang/Object;;
const #500 = NameAndType	#498:#499;//  sortWith:(Lscala/collection/SeqLike;Lscala/math/Ordering;)Ljava/lang/Object;
const #501 = Method	#75.#500;	//  scala/collection/SeqLike$class.sortWith:(Lscala/collection/SeqLike;Lscala/math/Ordering;)Ljava/lang/Object;
const #502 = Asciz	(Lscala/Function2;)Ljava/lang/Object;;
const #503 = Asciz	(Lscala/collection/SeqLike;Lscala/Function2;)Ljava/lang/Object;;
const #504 = NameAndType	#498:#503;//  sortWith:(Lscala/collection/SeqLike;Lscala/Function2;)Ljava/lang/Object;
const #505 = Method	#75.#504;	//  scala/collection/SeqLike$class.sortWith:(Lscala/collection/SeqLike;Lscala/Function2;)Ljava/lang/Object;
const #506 = Asciz	lt;
const #507 = Asciz	padTo;
const #508 = Asciz	(ILjava/lang/Object;Lscala/collection/generic/CanBuildFrom;)Ljava/lang/Object;;
const #509 = Asciz	(Lscala/collection/SeqLike;ILjava/lang/Object;Lscala/collection/generic/CanBuildFrom;)Ljava/lang/Object;;
const #510 = NameAndType	#507:#509;//  padTo:(Lscala/collection/SeqLike;ILjava/lang/Object;Lscala/collection/generic/CanBuildFrom;)Ljava/lang/Object;
const #511 = Method	#75.#510;	//  scala/collection/SeqLike$class.padTo:(Lscala/collection/SeqLike;ILjava/lang/Object;Lscala/collection/generic/CanBuildFrom;)Ljava/lang/Object;
const #512 = Asciz	len;
const #513 = Asciz	elem;
const #514 = Asciz	$colon$plus;
const #515 = Asciz	(Ljava/lang/Object;Lscala/collection/generic/CanBuildFrom;)Ljava/lang/Object;;
const #516 = Asciz	(Lscala/collection/SeqLike;Ljava/lang/Object;Lscala/collection/generic/CanBuildFrom;)Ljava/lang/Object;;
const #517 = NameAndType	#514:#516;//  $colon$plus:(Lscala/collection/SeqLike;Ljava/lang/Object;Lscala/collection/generic/CanBuildFrom;)Ljava/lang/Object;
const #518 = Method	#75.#517;	//  scala/collection/SeqLike$class.$colon$plus:(Lscala/collection/SeqLike;Ljava/lang/Object;Lscala/collection/generic/CanBuildFrom;)Ljava/lang/Object;
const #519 = Asciz	$plus$colon;
const #520 = NameAndType	#519:#516;//  $plus$colon:(Lscala/collection/SeqLike;Ljava/lang/Object;Lscala/collection/generic/CanBuildFrom;)Ljava/lang/Object;
const #521 = Method	#75.#520;	//  scala/collection/SeqLike$class.$plus$colon:(Lscala/collection/SeqLike;Ljava/lang/Object;Lscala/collection/generic/CanBuildFrom;)Ljava/lang/Object;
const #522 = Asciz	updated;
const #523 = NameAndType	#522:#509;//  updated:(Lscala/collection/SeqLike;ILjava/lang/Object;Lscala/collection/generic/CanBuildFrom;)Ljava/lang/Object;
const #524 = Method	#75.#523;	//  scala/collection/SeqLike$class.updated:(Lscala/collection/SeqLike;ILjava/lang/Object;Lscala/collection/generic/CanBuildFrom;)Ljava/lang/Object;
const #525 = Asciz	index;
const #526 = Asciz	patch;
const #527 = Asciz	(ILscala/collection/Seq;ILscala/collection/generic/CanBuildFrom;)Ljava/lang/Object;;
const #528 = Asciz	(Lscala/collection/SeqLike;ILscala/collection/Seq;ILscala/collection/generic/CanBuildFrom;)Ljava/lang/Object;;
const #529 = NameAndType	#526:#528;//  patch:(Lscala/collection/SeqLike;ILscala/collection/Seq;ILscala/collection/generic/CanBuildFrom;)Ljava/lang/Object;
const #530 = Method	#75.#529;	//  scala/collection/SeqLike$class.patch:(Lscala/collection/SeqLike;ILscala/collection/Seq;ILscala/collection/generic/CanBuildFrom;)Ljava/lang/Object;
const #531 = Asciz	replaced;
const #532 = Asciz	removeDuplicates;
const #533 = NameAndType	#532:#453;//  removeDuplicates:(Lscala/collection/SeqLike;)Ljava/lang/Object;
const #534 = Method	#75.#533;	//  scala/collection/SeqLike$class.removeDuplicates:(Lscala/collection/SeqLike;)Ljava/lang/Object;
const #535 = Asciz	intersect;
const #536 = Asciz	(Lscala/collection/Seq;)Ljava/lang/Object;;
const #537 = Asciz	(Lscala/collection/SeqLike;Lscala/collection/Seq;)Ljava/lang/Object;;
const #538 = NameAndType	#535:#537;//  intersect:(Lscala/collection/SeqLike;Lscala/collection/Seq;)Ljava/lang/Object;
const #539 = Method	#75.#538;	//  scala/collection/SeqLike$class.intersect:(Lscala/collection/SeqLike;Lscala/collection/Seq;)Ljava/lang/Object;
const #540 = Asciz	diff;
const #541 = NameAndType	#540:#537;//  diff:(Lscala/collection/SeqLike;Lscala/collection/Seq;)Ljava/lang/Object;
const #542 = Method	#75.#541;	//  scala/collection/SeqLike$class.diff:(Lscala/collection/SeqLike;Lscala/collection/Seq;)Ljava/lang/Object;
const #543 = Asciz	union;
const #544 = Asciz	(Lscala/collection/Seq;Lscala/collection/generic/CanBuildFrom;)Ljava/lang/Object;;
const #545 = Asciz	(Lscala/collection/SeqLike;Lscala/collection/Seq;Lscala/collection/generic/CanBuildFrom;)Ljava/lang/Object;;
const #546 = NameAndType	#543:#545;//  union:(Lscala/collection/SeqLike;Lscala/collection/Seq;Lscala/collection/generic/CanBuildFrom;)Ljava/lang/Object;
const #547 = Method	#75.#546;	//  scala/collection/SeqLike$class.union:(Lscala/collection/SeqLike;Lscala/collection/Seq;Lscala/collection/generic/CanBuildFrom;)Ljava/lang/Object;
const #548 = Asciz	contains;
const #549 = NameAndType	#548:#476;//  contains:(Lscala/collection/SeqLike;Ljava/lang/Object;)Z
const #550 = Method	#75.#549;	//  scala/collection/SeqLike$class.contains:(Lscala/collection/SeqLike;Ljava/lang/Object;)Z
const #551 = Asciz	lastIndexOfSlice;
const #552 = Asciz	(Lscala/collection/Seq;I)I;
const #553 = Asciz	(Lscala/collection/SeqLike;Lscala/collection/Seq;I)I;
const #554 = NameAndType	#551:#553;//  lastIndexOfSlice:(Lscala/collection/SeqLike;Lscala/collection/Seq;I)I
const #555 = Method	#75.#554;	//  scala/collection/SeqLike$class.lastIndexOfSlice:(Lscala/collection/SeqLike;Lscala/collection/Seq;I)I
const #556 = Asciz	fromIndex;
const #557 = Asciz	(Lscala/collection/Seq;)I;
const #558 = Asciz	(Lscala/collection/SeqLike;Lscala/collection/Seq;)I;
const #559 = NameAndType	#551:#558;//  lastIndexOfSlice:(Lscala/collection/SeqLike;Lscala/collection/Seq;)I
const #560 = Method	#75.#559;	//  scala/collection/SeqLike$class.lastIndexOfSlice:(Lscala/collection/SeqLike;Lscala/collection/Seq;)I
const #561 = Asciz	indexOfSlice;
const #562 = NameAndType	#561:#553;//  indexOfSlice:(Lscala/collection/SeqLike;Lscala/collection/Seq;I)I
const #563 = Method	#75.#562;	//  scala/collection/SeqLike$class.indexOfSlice:(Lscala/collection/SeqLike;Lscala/collection/Seq;I)I
const #564 = NameAndType	#561:#558;//  indexOfSlice:(Lscala/collection/SeqLike;Lscala/collection/Seq;)I
const #565 = Method	#75.#564;	//  scala/collection/SeqLike$class.indexOfSlice:(Lscala/collection/SeqLike;Lscala/collection/Seq;)I
const #566 = Asciz	startsWith;
const #567 = NameAndType	#566:#458;//  startsWith:(Lscala/collection/SeqLike;Lscala/collection/Seq;)Z
const #568 = Method	#75.#567;	//  scala/collection/SeqLike$class.startsWith:(Lscala/collection/SeqLike;Lscala/collection/Seq;)Z
const #569 = Asciz	reversedElements;
const #570 = Asciz	(Lscala/collection/SeqLike;)Lscala/collection/Iterator;;
const #571 = NameAndType	#569:#570;//  reversedElements:(Lscala/collection/SeqLike;)Lscala/collection/Iterator;
const #572 = Method	#75.#571;	//  scala/collection/SeqLike$class.reversedElements:(Lscala/collection/SeqLike;)Lscala/collection/Iterator;
const #573 = Asciz	reverseMap;
const #574 = Asciz	(Lscala/collection/SeqLike;Lscala/Function1;Lscala/collection/generic/CanBuildFrom;)Ljava/lang/Object;;
const #575 = NameAndType	#573:#574;//  reverseMap:(Lscala/collection/SeqLike;Lscala/Function1;Lscala/collection/generic/CanBuildFrom;)Ljava/lang/Object;
const #576 = Method	#75.#575;	//  scala/collection/SeqLike$class.reverseMap:(Lscala/collection/SeqLike;Lscala/Function1;Lscala/collection/generic/CanBuildFrom;)Ljava/lang/Object;
const #577 = Asciz	lastIndexWhere;
const #578 = NameAndType	#577:#468;//  lastIndexWhere:(Lscala/collection/SeqLike;Lscala/Function1;)I
const #579 = Method	#75.#578;	//  scala/collection/SeqLike$class.lastIndexWhere:(Lscala/collection/SeqLike;Lscala/Function1;)I
const #580 = Asciz	lastIndexOf;
const #581 = Asciz	(Ljava/lang/Object;I)I;
const #582 = Asciz	(Lscala/collection/SeqLike;Ljava/lang/Object;I)I;
const #583 = NameAndType	#580:#582;//  lastIndexOf:(Lscala/collection/SeqLike;Ljava/lang/Object;I)I
const #584 = Method	#75.#583;	//  scala/collection/SeqLike$class.lastIndexOf:(Lscala/collection/SeqLike;Ljava/lang/Object;I)I
const #585 = Asciz	(Lscala/collection/SeqLike;Ljava/lang/Object;)I;
const #586 = NameAndType	#580:#585;//  lastIndexOf:(Lscala/collection/SeqLike;Ljava/lang/Object;)I
const #587 = Method	#75.#586;	//  scala/collection/SeqLike$class.lastIndexOf:(Lscala/collection/SeqLike;Ljava/lang/Object;)I
const #588 = Asciz	indexOf;
const #589 = NameAndType	#588:#582;//  indexOf:(Lscala/collection/SeqLike;Ljava/lang/Object;I)I
const #590 = Method	#75.#589;	//  scala/collection/SeqLike$class.indexOf:(Lscala/collection/SeqLike;Ljava/lang/Object;I)I
const #591 = NameAndType	#588:#585;//  indexOf:(Lscala/collection/SeqLike;Ljava/lang/Object;)I
const #592 = Method	#75.#591;	//  scala/collection/SeqLike$class.indexOf:(Lscala/collection/SeqLike;Ljava/lang/Object;)I
const #593 = Asciz	findIndexOf;
const #594 = NameAndType	#593:#468;//  findIndexOf:(Lscala/collection/SeqLike;Lscala/Function1;)I
const #595 = Method	#75.#594;	//  scala/collection/SeqLike$class.findIndexOf:(Lscala/collection/SeqLike;Lscala/Function1;)I
const #596 = Asciz	indexWhere;
const #597 = NameAndType	#596:#468;//  indexWhere:(Lscala/collection/SeqLike;Lscala/Function1;)I
const #598 = Method	#75.#597;	//  scala/collection/SeqLike$class.indexWhere:(Lscala/collection/SeqLike;Lscala/Function1;)I
const #599 = Asciz	prefixLength;
const #600 = NameAndType	#599:#468;//  prefixLength:(Lscala/collection/SeqLike;Lscala/Function1;)I
const #601 = Method	#75.#600;	//  scala/collection/SeqLike$class.prefixLength:(Lscala/collection/SeqLike;Lscala/Function1;)I
const #602 = Asciz	(Lscala/collection/SeqLike;I)Z;
const #603 = NameAndType	#152:#602;//  isDefinedAt:(Lscala/collection/SeqLike;I)Z
const #604 = Method	#75.#603;	//  scala/collection/SeqLike$class.isDefinedAt:(Lscala/collection/SeqLike;I)Z
const #605 = Asciz	size;
const #606 = NameAndType	#605:#480;//  size:(Lscala/collection/SeqLike;)I
const #607 = Method	#75.#606;	//  scala/collection/SeqLike$class.size:(Lscala/collection/SeqLike;)I
const #608 = Asciz	endsWith;
const #609 = Asciz	(Lscala/collection/IndexedSeqLike;Lscala/collection/Seq;)Z;
const #610 = NameAndType	#608:#609;//  endsWith:(Lscala/collection/IndexedSeqLike;Lscala/collection/Seq;)Z
const #611 = Method	#90.#610;	//  scala/collection/IndexedSeqLike$class.endsWith:(Lscala/collection/IndexedSeqLike;Lscala/collection/Seq;)Z
const #612 = Asciz	(Lscala/collection/Seq;I)Z;
const #613 = Asciz	(Lscala/collection/IndexedSeqLike;Lscala/collection/Seq;I)Z;
const #614 = NameAndType	#566:#613;//  startsWith:(Lscala/collection/IndexedSeqLike;Lscala/collection/Seq;I)Z
const #615 = Method	#90.#614;	//  scala/collection/IndexedSeqLike$class.startsWith:(Lscala/collection/IndexedSeqLike;Lscala/collection/Seq;I)Z
const #616 = Asciz	offset;
const #617 = Asciz	reverseIterator;
const #618 = Asciz	(Lscala/collection/IndexedSeqLike;)Lscala/collection/Iterator;;
const #619 = NameAndType	#617:#618;//  reverseIterator:(Lscala/collection/IndexedSeqLike;)Lscala/collection/Iterator;
const #620 = Method	#90.#619;	//  scala/collection/IndexedSeqLike$class.reverseIterator:(Lscala/collection/IndexedSeqLike;)Lscala/collection/Iterator;
const #621 = Asciz	reverse;
const #622 = Asciz	(Lscala/collection/IndexedSeqLike;)Ljava/lang/Object;;
const #623 = NameAndType	#621:#622;//  reverse:(Lscala/collection/IndexedSeqLike;)Ljava/lang/Object;
const #624 = Method	#90.#623;	//  scala/collection/IndexedSeqLike$class.reverse:(Lscala/collection/IndexedSeqLike;)Ljava/lang/Object;
const #625 = Asciz	(Lscala/Function1;I)I;
const #626 = Asciz	(Lscala/collection/IndexedSeqLike;Lscala/Function1;I)I;
const #627 = NameAndType	#577:#626;//  lastIndexWhere:(Lscala/collection/IndexedSeqLike;Lscala/Function1;I)I
const #628 = Method	#90.#627;	//  scala/collection/IndexedSeqLike$class.lastIndexWhere:(Lscala/collection/IndexedSeqLike;Lscala/Function1;I)I
const #629 = NameAndType	#596:#626;//  indexWhere:(Lscala/collection/IndexedSeqLike;Lscala/Function1;I)I
const #630 = Method	#90.#629;	//  scala/collection/IndexedSeqLike$class.indexWhere:(Lscala/collection/IndexedSeqLike;Lscala/Function1;I)I
const #631 = Asciz	segmentLength;
const #632 = NameAndType	#631:#626;//  segmentLength:(Lscala/collection/IndexedSeqLike;Lscala/Function1;I)I
const #633 = Method	#90.#632;	//  scala/collection/IndexedSeqLike$class.segmentLength:(Lscala/collection/IndexedSeqLike;Lscala/Function1;I)I
const #634 = Asciz	lengthCompare;
const #635 = Asciz	(I)I;
const #636 = Asciz	(Lscala/collection/IndexedSeqLike;I)I;
const #637 = NameAndType	#634:#636;//  lengthCompare:(Lscala/collection/IndexedSeqLike;I)I
const #638 = Method	#90.#637;	//  scala/collection/IndexedSeqLike$class.lengthCompare:(Lscala/collection/IndexedSeqLike;I)I
const #639 = Asciz	(Ljava/lang/Object;II)V;
const #640 = Asciz	(Lscala/collection/IndexedSeqLike;Ljava/lang/Object;II)V;
const #641 = NameAndType	#263:#640;//  copyToArray:(Lscala/collection/IndexedSeqLike;Ljava/lang/Object;II)V
const #642 = Method	#90.#641;	//  scala/collection/IndexedSeqLike$class.copyToArray:(Lscala/collection/IndexedSeqLike;Ljava/lang/Object;II)V
const #643 = Asciz	sameElements;
const #644 = Asciz	(Lscala/collection/Iterable;)Z;
const #645 = Asciz	(Lscala/collection/IndexedSeqLike;Lscala/collection/Iterable;)Z;
const #646 = NameAndType	#643:#645;//  sameElements:(Lscala/collection/IndexedSeqLike;Lscala/collection/Iterable;)Z
const #647 = Method	#90.#646;	//  scala/collection/IndexedSeqLike$class.sameElements:(Lscala/collection/IndexedSeqLike;Lscala/collection/Iterable;)Z
const #648 = Asciz	span;
const #649 = Asciz	(Lscala/collection/IndexedSeqLike;Lscala/Function1;)Lscala/Tuple2;;
const #650 = NameAndType	#648:#649;//  span:(Lscala/collection/IndexedSeqLike;Lscala/Function1;)Lscala/Tuple2;
const #651 = Method	#90.#650;	//  scala/collection/IndexedSeqLike$class.span:(Lscala/collection/IndexedSeqLike;Lscala/Function1;)Lscala/Tuple2;
const #652 = Asciz	dropWhile;
const #653 = Asciz	(Lscala/collection/IndexedSeqLike;Lscala/Function1;)Ljava/lang/Object;;
const #654 = NameAndType	#652:#653;//  dropWhile:(Lscala/collection/IndexedSeqLike;Lscala/Function1;)Ljava/lang/Object;
const #655 = Method	#90.#654;	//  scala/collection/IndexedSeqLike$class.dropWhile:(Lscala/collection/IndexedSeqLike;Lscala/Function1;)Ljava/lang/Object;
const #656 = Asciz	takeWhile;
const #657 = NameAndType	#656:#653;//  takeWhile:(Lscala/collection/IndexedSeqLike;Lscala/Function1;)Ljava/lang/Object;
const #658 = Method	#90.#657;	//  scala/collection/IndexedSeqLike$class.takeWhile:(Lscala/collection/IndexedSeqLike;Lscala/Function1;)Ljava/lang/Object;
const #659 = Asciz	splitAt;
const #660 = Asciz	(I)Lscala/Tuple2;;
const #661 = Asciz	(Lscala/collection/IndexedSeqLike;I)Lscala/Tuple2;;
const #662 = NameAndType	#659:#661;//  splitAt:(Lscala/collection/IndexedSeqLike;I)Lscala/Tuple2;
const #663 = Method	#90.#662;	//  scala/collection/IndexedSeqLike$class.splitAt:(Lscala/collection/IndexedSeqLike;I)Lscala/Tuple2;
const #664 = Asciz	n;
const #665 = Asciz	dropRight;
const #666 = Asciz	(Lscala/collection/IndexedSeqLike;I)Ljava/lang/Object;;
const #667 = NameAndType	#665:#666;//  dropRight:(Lscala/collection/IndexedSeqLike;I)Ljava/lang/Object;
const #668 = Method	#90.#667;	//  scala/collection/IndexedSeqLike$class.dropRight:(Lscala/collection/IndexedSeqLike;I)Ljava/lang/Object;
const #669 = Asciz	takeRight;
const #670 = NameAndType	#669:#666;//  takeRight:(Lscala/collection/IndexedSeqLike;I)Ljava/lang/Object;
const #671 = Method	#90.#670;	//  scala/collection/IndexedSeqLike$class.takeRight:(Lscala/collection/IndexedSeqLike;I)Ljava/lang/Object;
const #672 = Asciz	drop;
const #673 = NameAndType	#672:#666;//  drop:(Lscala/collection/IndexedSeqLike;I)Ljava/lang/Object;
const #674 = Method	#90.#673;	//  scala/collection/IndexedSeqLike$class.drop:(Lscala/collection/IndexedSeqLike;I)Ljava/lang/Object;
const #675 = Asciz	take;
const #676 = NameAndType	#675:#666;//  take:(Lscala/collection/IndexedSeqLike;I)Ljava/lang/Object;
const #677 = Method	#90.#676;	//  scala/collection/IndexedSeqLike$class.take:(Lscala/collection/IndexedSeqLike;I)Ljava/lang/Object;
const #678 = Asciz	init;
const #679 = NameAndType	#678:#622;//  init:(Lscala/collection/IndexedSeqLike;)Ljava/lang/Object;
const #680 = Method	#90.#679;	//  scala/collection/IndexedSeqLike$class.init:(Lscala/collection/IndexedSeqLike;)Ljava/lang/Object;
const #681 = Asciz	last;
const #682 = NameAndType	#681:#622;//  last:(Lscala/collection/IndexedSeqLike;)Ljava/lang/Object;
const #683 = Method	#90.#682;	//  scala/collection/IndexedSeqLike$class.last:(Lscala/collection/IndexedSeqLike;)Ljava/lang/Object;
const #684 = Asciz	tail;
const #685 = NameAndType	#684:#622;//  tail:(Lscala/collection/IndexedSeqLike;)Ljava/lang/Object;
const #686 = Method	#90.#685;	//  scala/collection/IndexedSeqLike$class.tail:(Lscala/collection/IndexedSeqLike;)Ljava/lang/Object;
const #687 = Asciz	head;
const #688 = NameAndType	#687:#622;//  head:(Lscala/collection/IndexedSeqLike;)Ljava/lang/Object;
const #689 = Method	#90.#688;	//  scala/collection/IndexedSeqLike$class.head:(Lscala/collection/IndexedSeqLike;)Ljava/lang/Object;
const #690 = Asciz	slice;
const #691 = Asciz	(II)Ljava/lang/Object;;
const #692 = Asciz	(Lscala/collection/IndexedSeqLike;II)Ljava/lang/Object;;
const #693 = NameAndType	#690:#692;//  slice:(Lscala/collection/IndexedSeqLike;II)Ljava/lang/Object;
const #694 = Method	#90.#693;	//  scala/collection/IndexedSeqLike$class.slice:(Lscala/collection/IndexedSeqLike;II)Ljava/lang/Object;
const #695 = Asciz	zipWithIndex;
const #696 = Asciz	(Lscala/collection/generic/CanBuildFrom;)Ljava/lang/Object;;
const #697 = Asciz	(Lscala/collection/IndexedSeqLike;Lscala/collection/generic/CanBuildFrom;)Ljava/lang/Object;;
const #698 = NameAndType	#695:#697;//  zipWithIndex:(Lscala/collection/IndexedSeqLike;Lscala/collection/generic/CanBuildFrom;)Ljava/lang/Object;
const #699 = Method	#90.#698;	//  scala/collection/IndexedSeqLike$class.zipWithIndex:(Lscala/collection/IndexedSeqLike;Lscala/collection/generic/CanBuildFrom;)Ljava/lang/Object;
const #700 = Asciz	zip;
const #701 = Asciz	(Lscala/collection/Iterable;Lscala/collection/generic/CanBuildFrom;)Ljava/lang/Object;;
const #702 = Asciz	(Lscala/collection/IndexedSeqLike;Lscala/collection/Iterable;Lscala/collection/generic/CanBuildFrom;)Ljava/lang/Object;;
const #703 = NameAndType	#700:#702;//  zip:(Lscala/collection/IndexedSeqLike;Lscala/collection/Iterable;Lscala/collection/generic/CanBuildFrom;)Ljava/lang/Object;
const #704 = Method	#90.#703;	//  scala/collection/IndexedSeqLike$class.zip:(Lscala/collection/IndexedSeqLike;Lscala/collection/Iterable;Lscala/collection/generic/CanBuildFrom;)Ljava/lang/Object;
const #705 = Asciz	reduceRight;
const #706 = Asciz	(Lscala/collection/IndexedSeqLike;Lscala/Function2;)Ljava/lang/Object;;
const #707 = NameAndType	#705:#706;//  reduceRight:(Lscala/collection/IndexedSeqLike;Lscala/Function2;)Ljava/lang/Object;
const #708 = Method	#90.#707;	//  scala/collection/IndexedSeqLike$class.reduceRight:(Lscala/collection/IndexedSeqLike;Lscala/Function2;)Ljava/lang/Object;
const #709 = Asciz	reduceLeft;
const #710 = NameAndType	#709:#706;//  reduceLeft:(Lscala/collection/IndexedSeqLike;Lscala/Function2;)Ljava/lang/Object;
const #711 = Method	#90.#710;	//  scala/collection/IndexedSeqLike$class.reduceLeft:(Lscala/collection/IndexedSeqLike;Lscala/Function2;)Ljava/lang/Object;
const #712 = Asciz	foldRight;
const #713 = Asciz	(Lscala/collection/IndexedSeqLike;Ljava/lang/Object;Lscala/Function2;)Ljava/lang/Object;;
const #714 = NameAndType	#712:#713;//  foldRight:(Lscala/collection/IndexedSeqLike;Ljava/lang/Object;Lscala/Function2;)Ljava/lang/Object;
const #715 = Method	#90.#714;	//  scala/collection/IndexedSeqLike$class.foldRight:(Lscala/collection/IndexedSeqLike;Ljava/lang/Object;Lscala/Function2;)Ljava/lang/Object;
const #716 = Asciz	foldLeft;
const #717 = NameAndType	#716:#713;//  foldLeft:(Lscala/collection/IndexedSeqLike;Ljava/lang/Object;Lscala/Function2;)Ljava/lang/Object;
const #718 = Method	#90.#717;	//  scala/collection/IndexedSeqLike$class.foldLeft:(Lscala/collection/IndexedSeqLike;Ljava/lang/Object;Lscala/Function2;)Ljava/lang/Object;
const #719 = Asciz	find;
const #720 = Asciz	(Lscala/Function1;)Lscala/Option;;
[...]
   line 25: 0

  LocalVariableTable: 
   Start  Length  Slot  Name   Signature
   0      8      0    this       Lscala/collection/mutable/WrappedArray;
   0      8      1    xs       Ljava/lang/Object;
   0      8      2    start       I
   0      8      3    len       I


public boolean sameElements(scala.collection.Iterable);
  Code:
   Stack=2, Locals=2, Args_size=2
   0:	aload_0
   1:	aload_1
   2:	invokestatic	#647; //Method scala/collection/IndexedSeqLike$class.sameElements:(Lscala/collection/IndexedSeqLike;Lscala/collection/Iterable;)Z
   5:	ireturn
  LineNumberTable: 
   line 25: 0

  LocalVariableTable: 
   Start  Length  Slot  Name   Signature
   0      6      0    this       Lscala/collection/mutable/WrappedArray;
   0      6      1    that       Lscala/collection/Iterable;


public scala.Tuple2 span(scala.Function1);
  Code:
   Stack=2, Locals=2, Args_size=2
   0:	aload_0
   1:	aload_1
   2:	invokestatic	#651; //Method scala/collection/IndexedSeqLike$class.span:(Lscala/collection/IndexedSeqLike;Lscala/Function1;)Lscala/Tuple2;
   5:	areturn
  LineNumberTable: 
   line 25: 0

  LocalVariableTable: 
   Start  Length  Slot  Name   Signature
   0      6      0    this       Lscala/collection/mutable/WrappedArray;
   0      6      1    p       Lscala/Function1;


public java.lang.Object dropWhile(scala.Function1);
  Code:
   Stack=2, Locals=2, Args_size=2
   0:	aload_0
   1:	aload_1
   2:	invokestatic	#655; //Method scala/collection/IndexedSeqLike$class.dropWhile:(Lscala/collection/IndexedSeqLike;Lscala/Function1;)Ljava/lang/Object;
   5:	areturn
  LineNumberTable: 
   line 25: 0

  LocalVariableTable: 
   Start  Length  Slot  Name   Signature
   0      6      0    this       Lscala/collection/mutable/WrappedArray;
   0      6      1    p       Lscala/Function1;


public java.lang.Object takeWhile(scala.Function1);
  Code:
   Stack=2, Locals=2, Args_size=2
   0:	aload_0
   1:	aload_1
   2:	invokestatic	#658; //Method scala/collection/IndexedSeqLike$class.takeWhile:(Lscala/collection/IndexedSeqLike;Lscala/Function1;)Ljava/lang/Object;
   5:	areturn
  LineNumberTable: 
   line 25: 0

  LocalVariableTable: 
   Start  Length  Slot  Name   Signature
   0      6      0    this       Lscala/collection/mutable/WrappedArray;
   0      6      1    p       Lscala/Function1;


public scala.Tuple2 splitAt(int);
  Code:
   Stack=2, Locals=2, Args_size=2
   0:	aload_0
   1:	iload_1
   2:	invokestatic	#663; //Method scala/collection/IndexedSeqLike$class.splitAt:(Lscala/collection/IndexedSeqLike;I)Lscala/Tuple2;
   5:	areturn
  LineNumberTable: 
   line 25: 0

  LocalVariableTable: 
   Start  Length  Slot  Name   Signature
   0      6      0    this       Lscala/collection/mutable/WrappedArray;
   0      6      1    n       I


public java.lang.Object dropRight(int);
  Code:
   Stack=2, Locals=2, Args_size=2
   0:	aload_0
   1:	iload_1
   2:	invokestatic	#668; //Method scala/collection/IndexedSeqLike$class.dropRight:(Lscala/collection/IndexedSeqLike;I)Ljava/lang/Object;
   5:	areturn
  LineNumberTable: 
   line 25: 0

  LocalVariableTable: 
   Start  Length  Slot  Name   Signature
   0      6      0    this       Lscala/collection/mutable/WrappedArray;
   0      6      1    n       I


public java.lang.Object takeRight(int);
  Code:
   Stack=2, Locals=2, Args_size=2
   0:	aload_0
   1:	iload_1
   2:	invokestatic	#671; //Method scala/collection/IndexedSeqLike$class.takeRight:(Lscala/collection/IndexedSeqLike;I)Ljava/lang/Object;
   5:	areturn
  LineNumberTable: 
   line 25: 0

  LocalVariableTable: 
   Start  Length  Slot  Name   Signature
   0      6      0    this       Lscala/collection/mutable/WrappedArray;
   0      6      1    n       I


public java.lang.Object drop(int);
  Code:
   Stack=2, Locals=2, Args_size=2
   0:	aload_0
   1:	iload_1
   2:	invokestatic	#674; //Method scala/collection/IndexedSeqLike$class.drop:(Lscala/collection/IndexedSeqLike;I)Ljava/lang/Object;
   5:	areturn
  LineNumberTable: 
   line 25: 0

  LocalVariableTable: 
   Start  Length  Slot  Name   Signature
   0      6      0    this       Lscala/collection/mutable/WrappedArray;
   0      6      1    n       I


public java.lang.Object take(int);
  Code:
   Stack=2, Locals=2, Args_size=2
   0:	aload_0
   1:	iload_1
   2:	invokestatic	#677; //Method scala/collection/IndexedSeqLike$class.take:(Lscala/collection/IndexedSeqLike;I)Ljava/lang/Object;
   5:	areturn
  LineNumberTable: 
   line 25: 0

  LocalVariableTable: 
   Start  Length  Slot  Name   Signature
   0      6      0    this       Lscala/collection/mutable/WrappedArray;
   0      6      1    n       I


public java.lang.Object init();
  Code:
   Stack=1, Locals=1, Args_size=1
   0:	aload_0
   1:	invokestatic	#680; //Method scala/collection/IndexedSeqLike$class.init:(Lscala/collection/IndexedSeqLike;)Ljava/lang/Object;
   4:	areturn
  LineNumberTable: 
   line 25: 0


public java.lang.Object last();
  Code:
   Stack=1, Locals=1, Args_size=1
   0:	aload_0
   1:	invokestatic	#683; //Method scala/collection/IndexedSeqLike$class.last:(Lscala/collection/IndexedSeqLike;)Ljava/lang/Object;
   4:	areturn
  LineNumberTable: 
   line 25: 0


public java.lang.Object tail();
  Code:
   Stack=1, Locals=1, Args_size=1
   0:	aload_0
   1:	invokestatic	#686; //Method scala/collection/IndexedSeqLike$class.tail:(Lscala/collection/IndexedSeqLike;)Ljava/lang/Object;
   4:	areturn
  LineNumberTable: 
   line 25: 0


public java.lang.Object head();
  Code:
   Stack=1, Locals=1, Args_size=1
   0:	aload_0
   1:	invokestatic	#689; //Method scala/collection/IndexedSeqLike$class.head:(Lscala/collection/IndexedSeqLike;)Ljava/lang/Object;
   4:	areturn
  LineNumberTable: 
   line 25: 0


public java.lang.Object slice(int, int);
  Code:
   Stack=3, Locals=3, Args_size=3
   0:	aload_0
   1:	iload_1
   2:	iload_2
   3:	invokestatic	#694; //Method scala/collection/IndexedSeqLike$class.slice:(Lscala/collection/IndexedSeqLike;II)Ljava/lang/Object;
   6:	areturn
  LineNumberTable: 
   line 25: 0

  LocalVariableTable: 
   Start  Length  Slot  Name   Signature
   0      7      0    this       Lscala/collection/mutable/WrappedArray;
   0      7      1    from       I
   0      7      2    until       I


public java.lang.Object zipWithIndex(scala.collection.generic.CanBuildFrom);
  Code:
   Stack=2, Locals=2, Args_size=2
   0:	aload_0
   1:	aload_1
   2:	invokestatic	#699; //Method scala/collection/IndexedSeqLike$class.zipWithIndex:(Lscala/collection/IndexedSeqLike;Lscala/collection/generic/CanBuildFrom;)Ljava/lang/Object;
   5:	areturn
  LineNumberTable: 
   line 25: 0

  LocalVariableTable: 
   Start  Length  Slot  Name   Signature
   0      6      0    this       Lscala/collection/mutable/WrappedArray;
   0      6      1    bf       Lscala/collection/generic/CanBuildFrom;


public java.lang.Object zip(scala.collection.Iterable, scala.collection.generic.CanBuildFrom);
  Code:
   Stack=3, Locals=3, Args_size=3
   0:	aload_0
   1:	aload_1
   2:	aload_2
   3:	invokestatic	#704; //Method scala/collection/IndexedSeqLike$class.zip:(Lscala/collection/IndexedSeqLike;Lscala/collection/Iterable;Lscala/collection/generic/CanBuildFrom;)Ljava/lang/Object;
   6:	areturn
  LineNumberTable: 
   line 25: 0

  LocalVariableTable: 
   Start  Length  Slot  Name   Signature
   0      7      0    this       Lscala/collection/mutable/WrappedArray;
   0      7      1    that       Lscala/collection/Iterable;
   0      7      2    bf       Lscala/collection/generic/CanBuildFrom;


public java.lang.Object reduceRight(scala.Function2);
  Code:
   Stack=2, Locals=2, Args_size=2
   0:	aload_0
   1:	aload_1
   2:	invokestatic	#708; //Method scala/collection/IndexedSeqLike$class.reduceRight:(Lscala/collection/IndexedSeqLike;Lscala/Function2;)Ljava/lang/Object;
   5:	areturn
  LineNumberTable: 
   line 25: 0

  LocalVariableTable: 
   Start  Length  Slot  Name   Signature
   0      6      0    this       Lscala/collection/mutable/WrappedArray;
   0      6      1    op       Lscala/Function2;


public java.lang.Object reduceLeft(scala.Function2);
  Code:
   Stack=2, Locals=2, Args_size=2
   0:	aload_0
   1:	aload_1
   2:	invokestatic	#711; //Method scala/collection/IndexedSeqLike$class.reduceLeft:(Lscala/collection/IndexedSeqLike;Lscala/Function2;)Ljava/lang/Object;
   5:	areturn
  LineNumberTable: 
   line 25: 0

  LocalVariableTable: 
   Start  Length  Slot  Name   Signature
   0      6      0    this       Lscala/collection/mutable/WrappedArray;
   0      6      1    op       Lscala/Function2;


public java.lang.Object foldRight(java.lang.Object, scala.Function2);
  Code:
   Stack=3, Locals=3, Args_size=3
   0:	aload_0
   1:	aload_1
   2:	aload_2
   3:	invokestatic	#715; //Method scala/collection/IndexedSeqLike$class.foldRight:(Lscala/collection/IndexedSeqLike;Ljava/lang/Object;Lscala/Function2;)Ljava/lang/Object;
   6:	areturn
  LineNumberTable: 
   line 25: 0

  LocalVariableTable: 
   Start  Length  Slot  Name   Signature
   0      7      0    this       Lscala/collection/mutable/WrappedArray;
   0      7      1    z       Ljava/lang/Object;
   0      7      2    op       Lscala/Function2;


public java.lang.Object foldLeft(java.lang.Object, scala.Function2);
  Code:
   Stack=3, Locals=3, Args_size=3
   0:	aload_0
   1:	aload_1
   2:	aload_2
   3:	invokestatic	#718; //Method scala/collection/IndexedSeqLike$class.foldLeft:(Lscala/collection/IndexedSeqLike;Ljava/lang/Object;Lscala/Function2;)Ljava/lang/Object;
   6:	areturn
  LineNumberTable: 
   line 25: 0

  LocalVariableTable: 
   Start  Length  Slot  Name   Signature
   0      7      0    this       Lscala/collection/mutable/WrappedArray;
   0      7      1    z       Ljava/lang/Object;
   0      7      2    op       Lscala/Function2;


public scala.Option find(scala.Function1);
  Code:
   Stack=2, Locals=2, Args_size=2
   0:	aload_0
   1:	aload_1
   2:	invokestatic	#723; //Method scala/collection/IndexedSeqLike$class.find:(Lscala/collection/IndexedSeqLike;Lscala/Function1;)Lscala/Option;
   5:	areturn
  LineNumberTable: 
   line 25: 0

  LocalVariableTable: 
   Start  Length  Slot  Name   Signature
   0      6      0    this       Lscala/collection/mutable/WrappedArray;
   0      6      1    p       Lscala/Function1;


public boolean exists(scala.Function1);
  Code:
   Stack=2, Locals=2, Args_size=2
   0:	aload_0
   1:	aload_1
   2:	invokestatic	#728; //Method scala/collection/IndexedSeqLike$class.exists:(Lscala/collection/IndexedSeqLike;Lscala/Function1;)Z
   5:	ireturn
  LineNumberTable: 
   line 25: 0

  LocalVariableTable: 
   Start  Length  Slot  Name   Signature
   0      6      0    this       Lscala/collection/mutable/WrappedArray;
   0      6      1    p       Lscala/Function1;


public boolean forall(scala.Function1);
  Code:
   Stack=2, Locals=2, Args_size=2
   0:	aload_0
   1:	aload_1
   2:	invokestatic	#731; //Method scala/collection/IndexedSeqLike$class.forall:(Lscala/collection/IndexedSeqLike;Lscala/Function1;)Z
   5:	ireturn
  LineNumberTable: 
   line 25: 0

  LocalVariableTable: 
   Start  Length  Slot  Name   Signature
   0      6      0    this       Lscala/collection/mutable/WrappedArray;
   0      6      1    p       Lscala/Function1;


public void foreach(scala.Function1);
  Code:
   Stack=2, Locals=2, Args_size=2
   0:	aload_0
   1:	aload_1
   2:	invokestatic	#735; //Method scala/collection/IndexedSeqLike$class.foreach:(Lscala/collection/IndexedSeqLike;Lscala/Function1;)V
   5:	return
  LineNumberTable: 
   line 25: 0

  LocalVariableTable: 
   Start  Length  Slot  Name   Signature
   0      6      0    this       Lscala/collection/mutable/WrappedArray;
   0      6      1    f       Lscala/Function1;


public boolean isEmpty();
  Code:
   Stack=1, Locals=1, Args_size=1
   0:	aload_0
   1:	invokestatic	#739; //Method scala/collection/IndexedSeqLike$class.isEmpty:(Lscala/collection/IndexedSeqLike;)Z
   4:	ireturn
  LineNumberTable: 
   line 25: 0


public scala.collection.Iterator iterator();
  Code:
   Stack=1, Locals=1, Args_size=1
   0:	aload_0
   1:	invokestatic	#742; //Method scala/collection/IndexedSeqLike$class.iterator:(Lscala/collection/IndexedSeqLike;)Lscala/collection/Iterator;
   4:	areturn
  LineNumberTable: 
   line 25: 0


public final boolean scala$collection$IndexedSeqLike$$super$endsWith(scala.collection.Seq);
  Code:
   Stack=2, Locals=2, Args_size=2
   0:	aload_0
   1:	aload_1
   2:	invokestatic	#745; //Method scala/collection/SeqLike$class.endsWith:(Lscala/collection/SeqLike;Lscala/collection/Seq;)Z
   5:	ireturn
  LineNumberTable: 
   line 25: 0

  LocalVariableTable: 
   Start  Length  Slot  Name   Signature
   0      6      0    this       Lscala/collection/mutable/WrappedArray;
   0      6      1    that       Lscala/collection/Seq;


public final boolean scala$collection$IndexedSeqLike$$super$sameElements(scala.collection.Iterable);
  Code:
   Stack=2, Locals=2, Args_size=2
   0:	aload_0
   1:	aload_1
   2:	invokestatic	#749; //Method scala/collection/IterableLike$class.sameElements:(Lscala/collection/IterableLike;Lscala/collection/Iterable;)Z
   5:	ireturn
  LineNumberTable: 
   line 25: 0

  LocalVariableTable: 
   Start  Length  Slot  Name   Signature
   0      6      0    this       Lscala/collection/mutable/WrappedArray;
   0      6      1    that       Lscala/collection/Iterable;


public final java.lang.Object scala$collection$IndexedSeqLike$$super$init();
  Code:
   Stack=1, Locals=1, Args_size=1
   0:	aload_0
   1:	invokestatic	#752; //Method scala/collection/TraversableLike$class.init:(Lscala/collection/TraversableLike;)Ljava/lang/Object;
   4:	areturn
  LineNumberTable: 
   line 25: 0


public final java.lang.Object scala$collection$IndexedSeqLike$$super$last();
  Code:
   Stack=1, Locals=1, Args_size=1
   0:	aload_0
   1:	invokestatic	#755; //Method scala/collection/TraversableLike$class.last:(Lscala/collection/TraversableLike;)Ljava/lang/Object;
   4:	areturn
  LineNumberTable: 
   line 25: 0


public final java.lang.Object scala$collection$IndexedSeqLike$$super$tail();
  Code:
   Stack=1, Locals=1, Args_size=1
   0:	aload_0
   1:	invokestatic	#758; //Method scala/collection/TraversableLike$class.tail:(Lscala/collection/TraversableLike;)Ljava/lang/Object;
   4:	areturn
  LineNumberTable: 
   line 25: 0


public final java.lang.Object scala$collection$IndexedSeqLike$$super$head();
  Code:
   Stack=1, Locals=1, Args_size=1
   0:	aload_0
   1:	invokestatic	#761; //Method scala/collection/IterableLike$class.head:(Lscala/collection/IterableLike;)Ljava/lang/Object;
   4:	areturn
  LineNumberTable: 
   line 25: 0


public final java.lang.Object scala$collection$IndexedSeqLike$$super$zip(scala.collection.Iterable, scala.collection.generic.CanBuildFrom);
  Code:
   Stack=3, Locals=3, Args_size=3
   0:	aload_0
   1:	aload_1
   2:	aload_2
   3:	invokestatic	#765; //Method scala/collection/IterableLike$class.zip:(Lscala/collection/IterableLike;Lscala/collection/Iterable;Lscala/collection/generic/CanBuildFrom;)Ljava/lang/Object;
   6:	areturn
  LineNumberTable: 
   line 25: 0

  LocalVariableTable: 
   Start  Length  Slot  Name   Signature
   0      7      0    this       Lscala/collection/mutable/WrappedArray;
   0      7      1    that       Lscala/collection/Iterable;
   0      7      2    bf       Lscala/collection/generic/CanBuildFrom;


public final java.lang.Object scala$collection$IndexedSeqLike$$super$reduceRight(scala.Function2);
  Code:
   Stack=2, Locals=2, Args_size=2
   0:	aload_0
   1:	aload_1
   2:	invokestatic	#769; //Method scala/collection/IterableLike$class.reduceRight:(Lscala/collection/IterableLike;Lscala/Function2;)Ljava/lang/Object;
   5:	areturn
  LineNumberTable: 
   line 25: 0

  LocalVariableTable: 
   Start  Length  Slot  Name   Signature
   0      6      0    this       Lscala/collection/mutable/WrappedArray;
   0      6      1    op       Lscala/Function2;


public final java.lang.Object scala$collection$IndexedSeqLike$$super$reduceLeft(scala.Function2);
  Code:
   Stack=2, Locals=2, Args_size=2
   0:	aload_0
   1:	aload_1
   2:	invokestatic	#773; //Method scala/collection/TraversableLike$class.reduceLeft:(Lscala/collection/TraversableLike;Lscala/Function2;)Ljava/lang/Object;
   5:	areturn
  LineNumberTable: 
   line 25: 0

  LocalVariableTable: 
   Start  Length  Slot  Name   Signature
   0      6      0    this       Lscala/collection/mutable/WrappedArray;
   0      6      1    op       Lscala/Function2;


public scala.collection.mutable.IndexedSeqView view(int, int);
  Code:
   Stack=3, Locals=3, Args_size=3
   0:	aload_0
   1:	iload_1
   2:	iload_2
   3:	invokestatic	#776; //Method scala/collection/mutable/IndexedSeqLike$class.view:(Lscala/collection/mutable/IndexedSeqLike;II)Lscala/collection/mutable/IndexedSeqView;
   6:	areturn
  LineNumberTable: 
   line 25: 0

  LocalVariableTable: 
   Start  Length  Slot  Name   Signature
   0      7      0    this       Lscala/collection/mutable/WrappedArray;
   0      7      1    from       I
   0      7      2    until       I


public java.lang.Object view();
  Code:
   Stack=1, Locals=1, Args_size=1
   0:	aload_0
   1:	invokestatic	#779; //Method scala/collection/mutable/IndexedSeqLike$class.view:(Lscala/collection/mutable/IndexedSeqLike;)Ljava/lang/Object;
   4:	areturn
  LineNumberTable: 
   line 25: 0


public scala.collection.generic.GenericCompanion companion();
  Code:
   Stack=1, Locals=1, Args_size=1
   0:	aload_0
   1:	invokestatic	#784; //Method scala/collection/mutable/IndexedSeq$class.companion:(Lscala/collection/mutable/IndexedSeq;)Lscala/collection/generic/GenericCompanion;
   4:	areturn
  LineNumberTable: 
   line 25: 0


public final boolean deepEquals(java.lang.Object);
  Code:
   Stack=2, Locals=2, Args_size=2
   0:	aload_0
   1:	aload_1
   2:	invokestatic	#788; //Method scala/collection/mutable/ArrayLike$class.deepEquals:(Lscala/collection/mutable/ArrayLike;Ljava/lang/Object;)Z
   5:	ireturn
  LineNumberTable: 
   line 25: 0

  LocalVariableTable: 
   Start  Length  Slot  Name   Signature
   0      6      0    this       Lscala/collection/mutable/WrappedArray;
   0      6      1    that       Ljava/lang/Object;


public final java.lang.String deepMkString(java.lang.String);
  Code:
   Stack=2, Locals=2, Args_size=2
   0:	aload_0
   1:	aload_1
   2:	invokestatic	#792; //Method scala/collection/mutable/ArrayLike$class.deepMkString:(Lscala/collection/mutable/ArrayLike;Ljava/lang/String;)Ljava/lang/String;
   5:	areturn
  LineNumberTable: 
   line 25: 0

  LocalVariableTable: 
   Start  Length  Slot  Name   Signature
   0      6      0    this       Lscala/collection/mutable/WrappedArray;
   0      6      1    sep       Ljava/lang/String;


public final java.lang.String deepMkString(java.lang.String, java.lang.String, java.lang.String);
  Code:
   Stack=4, Locals=4, Args_size=4
   0:	aload_0
   1:	aload_1
   2:	aload_2
   3:	aload_3
   4:	invokestatic	#795; //Method scala/collection/mutable/ArrayLike$class.deepMkString:(Lscala/collection/mutable/ArrayLike;Ljava/lang/String;Ljava/lang/String;Ljava/lang/String;)Ljava/lang/String;
   7:	areturn
  LineNumberTable: 
   line 25: 0

  LocalVariableTable: 
   Start  Length  Slot  Name   Signature
   0      8      0    this       Lscala/collection/mutable/WrappedArray;
   0      8      1    start       Ljava/lang/String;
   0      8      2    sep       Ljava/lang/String;
   0      8      3    end       Ljava/lang/String;


public final java.lang.String deepToString();
  Code:
   Stack=1, Locals=1, Args_size=1
   0:	aload_0
   1:	invokestatic	#799; //Method scala/collection/mutable/ArrayLike$class.deepToString:(Lscala/collection/mutable/ArrayLike;)Ljava/lang/String;
   4:	areturn
  LineNumberTable: 
   line 25: 0


public scala.collection.IndexedSeq deep();
  Code:
   Stack=1, Locals=1, Args_size=1
   0:	aload_0
   1:	invokestatic	#803; //Method scala/collection/mutable/ArrayLike$class.deep:(Lscala/collection/mutable/ArrayLike;)Lscala/collection/IndexedSeq;
   4:	areturn
  LineNumberTable: 
   line 25: 0


}

