Compiled from "WrappedArray.scala"
public abstract class scala.collection.mutable.WrappedArray extends java.lang.Object implements scala.collection.mutable.IndexedSeq,scala.collection.mutable.ArrayLike,scala.ScalaObject
  SourceFile: "WrappedArray.scala"
  Signature: length = 0x2
   03 29 
  ScalaSig: length = 0xBDF
   05 00 FFFFFF83 25 06 05 01 02 FFFFFF81 00 09 02 0C 57 72 61
   70 70 65 64 41 72 72 61 79 0A 02 03 04 01 07 6D
   75 74 61 62 6C 65 0A 02 05 06 01 0A 63 6F 6C 6C
   65 63 74 69 6F 6E 0A 01 07 01 05 73 63 61 6C 61
   03 00 15 02 0A 19 13 05 00 0B 13 23 27 10 02 0C
   11 0D 01 0D 0A 02 0E 0F 01 04 6C 61 6E 67 0A 01
   10 01 04 6A 61 76 61 09 02 12 0D 02 06 4F 62 6A
   65 63 74 10 03 14 15 17 0D 01 02 09 02 16 02 02
   0A 49 6E 64 65 78 65 64 53 65 71 10 02 18 19 0C
   00 04 08 1A 00 FFFFFF84 FFFFFF80 FFFFFF80 FFFFFFC2 00 1B 02 01 54 11 02
   1C 20 10 02 1D 1E 0D 01 06 09 02 1F 06 02 07 4E
   6F 74 68 69 6E 67 10 02 1D 21 09 02 22 06 02 03
   41 6E 79 10 04 14 24 17 26 09 02 25 02 02 09 41
   72 72 61 79 4C 69 6B 65 10 03 14 00 17 10 02 1D
   28 09 02 29 06 02 0B 53 63 61 6C 61 4F 62 6A 65
   63 74 08 05 2B 00 FFFFFF84 00 2C 01 06 3C 69 6E 69 74
   3E 14 01 26 08 06 2E 00 FFFFFFA0 FFFFFF84 28 2F 01 0E 74 68
   69 73 43 6F 6C 6C 65 63 74 69 6F 6E 15 01 26 08
   06 31 00 FFFFFFA0 FFFFFF84 28 32 01 0C 74 6F 43 6F 6C 6C 65
   63 74 69 6F 6E 14 02 26 33 08 05 34 30 FFFFFFC0 00 26
   01 04 72 65 70 72 08 05 36 00 FFFFFF86 00 37 01 0C 65
   6C 65 6D 4D 61 6E 69 66 65 73 74 15 01 38 10 03
   39 3C 17 0D 01 3A 0A 02 3B 06 01 07 72 65 66 6C
   65 63 74 09 02 3D 3A 02 0D 43 6C 61 73 73 4D 61
   6E 69 66 65 73 74 08 05 3F 00 FFFFFF86 00 40 01 06 6C
   65 6E 67 74 68 15 01 41 10 02 1D 42 09 02 43 06
   02 03 49 6E 74 08 05 45 00 FFFFFF86 00 46 01 05 61 70
   70 6C 79 14 02 17 47 08 05 48 44 FFFFFFC0 00 41 01 05
   69 6E 64 65 78 08 05 4A 00 FFFFFF86 00 4B 01 06 75 70
   64 61 74 65 14 03 4C 4F 50 10 02 1D 4D 09 02 4E
   06 02 04 55 6E 69 74 08 05 48 49 FFFFFFC0 00 41 08 05
   51 49 FFFFFFC0 00 17 01 04 65 6C 65 6D 08 05 53 00 FFFFFF86
   00 54 01 05 61 72 72 61 79 15 01 55 10 03 1D 56
   17 09 02 57 06 02 05 41 72 72 61 79 08 05 59 00
   FFFFFF84 20 5A 01 0C 73 74 72 69 6E 67 50 72 65 66 69
   78 15 01 5B 10 02 0C 5C 09 02 5D 0D 02 06 53 74
   72 69 6E 67 08 06 5F 00 FFFFFFA0 FFFFFF84 28 60 01 0A 6E 65
   77 42 75 69 6C 64 65 72 15 01 61 10 04 14 62 17
   26 09 02 63 02 02 07 42 75 69 6C 64 65 72 07 05
   65 02 FFFFFF88 02 66 01 0C 57 72 61 70 70 65 64 41 72
   72 61 79 10 02 14 67 06 08 01 02 FFFFFF84 FFFFFF80 FFFFFF80 FFFFFF88 02
   68 13 03 67 0B 27 08 05 2B 67 FFFFFF84 00 6A 14 01 66
   08 05 6C 67 FFFFFF84 00 6D 01 04 6D 61 6B 65 15 02 6E
   71 14 02 6F 72 10 03 14 00 70 10 02 18 71 04 08
   1A 6B FFFFFF84 FFFFFF80 FFFFFF80 FFFFFFC2 00 1B 08 05 73 6B FFFFFFC0 00 74 01
   01 78 10 02 1D 75 09 02 76 06 02 06 41 6E 79 52
   65 66 08 05 78 67 FFFFFF84 01 79 01 0C 63 61 6E 42 75
   69 6C 64 46 72 6F 6D 15 03 7A FFFFFF81 07 16 03 7B FFFFFF81
   09 10 08 7C 7F FFFFFF81 01 FFFFFF81 06 FFFFFF81 08 0D 01 7D 0A 02
   7E 04 01 07 67 65 6E 65 72 69 63 09 03 FFFFFF81 00 7D
   02 0C 43 61 6E 42 75 69 6C 64 46 72 6F 6D 30 04
   FFFFFF81 02 FFFFFF81 04 10 04 14 00 FFFFFF81 03 10 03 18 FFFFFF81 04 04
   09 FFFFFF81 05 77 FFFFFF84 FFFFFF80 FFFFFF80 FFFFFF82 00 1B 02 03 5F 24 31 10
   03 18 FFFFFF81 07 04 08 1A 77 FFFFFF84 FFFFFF80 FFFFFF80 FFFFFFC2 00 1B 10 04
   14 00 FFFFFF81 06 08 07 FFFFFF81 0A 77 FFFFFFC0 01 FFFFFF81 0B 01 01 6D
   10 04 39 3C FFFFFF81 06 08 06 5F 67 FFFFFF84 00 FFFFFF81 0D 15 04
   FFFFFF81 0E FFFFFF81 10 10 06 14 62 FFFFFF81 0F FFFFFF81 12 10 03 18 FFFFFF81
   10 04 0A FFFFFF81 11 FFFFFF81 0C FFFFFF84 FFFFFF80 FFFFFF80 FFFFFFC2 00 1B 02 01 41
   10 04 14 15 FFFFFF81 0F 06 06 FFFFFF81 14 67 02 FFFFFF81 15 02 05
   6F 66 52 65 66 15 04 FFFFFF81 16 FFFFFF81 19 13 05 FFFFFF81 13 FFFFFF81
   17 27 10 04 14 00 FFFFFF81 18 10 03 18 FFFFFF81 19 04 0A 1A
   FFFFFF81 13 FFFFFF84 FFFFFF80 FFFFFF80 FFFFFFC2 00 FFFFFF81 1A 11 02 1C 74 08 0A 53
   FFFFFF81 13 FFFFFF82 FFFFFFC2 FFFFFF80 FFFFFF84 00 FFFFFF81 1C 15 02 FFFFFF81 1D 10 04 1D
   56 FFFFFF81 18 08 0B FFFFFF81 1F FFFFFF81 13 FFFFFF82 FFFFFF80 FFFFFFA0 FFFFFF80 04 FFFFFF81 1D
   01 06 61 72 72 61 79 20 08 07 2B FFFFFF81 13 FFFFFF84 00 FFFFFF81
   21 14 04 FFFFFF81 22 FFFFFF81 24 10 06 FFFFFF81 23 FFFFFF81 13 FFFFFF81 18 0D
   01 67 08 07 53 FFFFFF81 20 FFFFFFC0 00 FFFFFF81 1D 08 0A 36 FFFFFF81 13
   FFFFFF88 FFFFFFC2 FFFFFF80 FFFFFF84 00 FFFFFF81 26 15 02 FFFFFF81 27 10 04 39 3C FFFFFF81
   18 08 0B FFFFFF81 29 FFFFFF81 13 FFFFFF88 FFFFFF80 FFFFFFA0 FFFFFFA0 04 FFFFFF81 27 01 0D
   65 6C 65 6D 4D 61 6E 69 66 65 73 74 20 08 06 3F
   FFFFFF81 13 FFFFFF84 00 40 08 07 45 FFFFFF81 13 FFFFFF84 00 FFFFFF81 2C 14 04
   FFFFFF81 18 FFFFFF81 2D 08 06 48 FFFFFF81 2B FFFFFFC0 00 41 08 07 4A FFFFFF81
   13 FFFFFF84 00 FFFFFF81 2F 14 05 4C FFFFFF81 30 FFFFFF81 31 08 06 48 FFFFFF81
   2E FFFFFFC0 00 41 08 07 51 FFFFFF81 2E FFFFFFC0 00 FFFFFF81 18 28 04 FFFFFF81
   13 FFFFFF81 33 10 03 1D FFFFFF81 34 09 03 FFFFFF81 35 06 02 0C 73
   65 72 69 61 6C 69 7A 61 62 6C 65 06 0A FFFFFF81 37 67
   FFFFFF84 FFFFFF80 FFFFFF80 FFFFFF80 02 FFFFFF81 38 02 06 6F 66 42 79 74 65 13
   05 FFFFFF81 36 FFFFFF81 39 27 10 04 14 00 FFFFFF81 3A 10 03 1D FFFFFF81
   3B 09 03 FFFFFF81 3C 06 02 04 42 79 74 65 08 0A 53 FFFFFF81
   36 FFFFFF82 FFFFFFC2 FFFFFF80 FFFFFF84 00 FFFFFF81 3E 15 02 FFFFFF81 3F 10 04 1D 56
   FFFFFF81 3A 08 0B FFFFFF81 1F FFFFFF81 36 FFFFFF82 FFFFFF80 FFFFFFA0 FFFFFF80 04 FFFFFF81 3F 08
   07 2B FFFFFF81 36 FFFFFF84 00 FFFFFF81 42 14 04 FFFFFF81 43 FFFFFF81 44 10 04
   FFFFFF81 23 FFFFFF81 36 08 07 53 FFFFFF81 41 FFFFFFC0 00 FFFFFF81 3F 08 07 36
   FFFFFF81 36 FFFFFF84 00 FFFFFF81 46 15 02 FFFFFF81 47 10 05 39 FFFFFF81 48 FFFFFF81
   3A 09 03 FFFFFF81 49 3A 02 0E 41 6E 79 56 61 6C 4D 61
   6E 69 66 65 73 74 08 06 3F FFFFFF81 36 FFFFFF84 00 40 08 07
   45 FFFFFF81 36 FFFFFF84 00 FFFFFF81 4C 14 04 FFFFFF81 3A FFFFFF81 4D 08 06 48
   FFFFFF81 4B FFFFFFC0 00 41 08 07 4A FFFFFF81 36 FFFFFF84 00 FFFFFF81 4F 14 05
   4C FFFFFF81 50 FFFFFF81 51 08 06 48 FFFFFF81 4E FFFFFFC0 00 41 08 07 51
   FFFFFF81 4E FFFFFFC0 00 FFFFFF81 3A 28 04 FFFFFF81 36 FFFFFF81 33 06 0A FFFFFF81 54
   67 FFFFFF84 FFFFFF80 FFFFFF80 FFFFFF80 02 FFFFFF81 55 02 07 6F 66 53 68 6F 72
   74 13 05 FFFFFF81 53 FFFFFF81 56 27 10 04 14 00 FFFFFF81 57 10 03
   1D FFFFFF81 58 09 03 FFFFFF81 59 06 02 05 53 68 6F 72 74 08
   0A 53 FFFFFF81 53 FFFFFF82 FFFFFFC2 FFFFFF80 FFFFFF84 00 FFFFFF81 5B 15 02 FFFFFF81 5C 10
   04 1D 56 FFFFFF81 57 08 0B FFFFFF81 1F FFFFFF81 53 FFFFFF82 FFFFFF80 FFFFFFA0 FFFFFF80 04
   FFFFFF81 5C 08 07 2B FFFFFF81 53 FFFFFF84 00 FFFFFF81 5F 14 04 FFFFFF81 60 FFFFFF81
   61 10 04 FFFFFF81 23 FFFFFF81 53 08 07 53 FFFFFF81 5E FFFFFFC0 00 FFFFFF81 5C
   08 07 36 FFFFFF81 53 FFFFFF84 00 FFFFFF81 63 15 02 FFFFFF81 64 10 05 39
   FFFFFF81 48 FFFFFF81 57 08 06 3F FFFFFF81 53 FFFFFF84 00 40 08 07 45 FFFFFF81
   53 FFFFFF84 00 FFFFFF81 67 14 04 FFFFFF81 57 FFFFFF81 68 08 06 48 FFFFFF81 66
   FFFFFFC0 00 41 08 07 4A FFFFFF81 53 FFFFFF84 00 FFFFFF81 6A 14 05 4C FFFFFF81
   6B FFFFFF81 6C 08 06 48 FFFFFF81 69 FFFFFFC0 00 41 08 07 51 FFFFFF81 69
   FFFFFFC0 00 FFFFFF81 57 28 04 FFFFFF81 53 FFFFFF81 33 06 0A FFFFFF81 6F 67 FFFFFF84
   FFFFFF80 FFFFFF80 FFFFFF80 02 FFFFFF81 70 02 06 6F 66 43 68 61 72 13 05
   FFFFFF81 6E FFFFFF81 71 27 10 04 14 00 FFFFFF81 72 10 03 1D FFFFFF81 73
   09 03 FFFFFF81 74 06 02 04 43 68 61 72 08 0A 53 FFFFFF81 6E
   FFFFFF82 FFFFFFC2 FFFFFF80 FFFFFF84 00 FFFFFF81 76 15 02 FFFFFF81 77 10 04 1D 56 FFFFFF81
   72 08 0B FFFFFF81 1F FFFFFF81 6E FFFFFF82 FFFFFF80 FFFFFFA0 FFFFFF80 04 FFFFFF81 77 08 07
   2B FFFFFF81 6E FFFFFF84 00 FFFFFF81 7A 14 04 FFFFFF81 7B FFFFFF81 7C 10 04 FFFFFF81
   23 FFFFFF81 6E 08 07 53 FFFFFF81 79 FFFFFFC0 00 FFFFFF81 77 08 07 36 FFFFFF81
   6E FFFFFF84 00 FFFFFF81 7E 15 02 FFFFFF81 7F 10 05 39 FFFFFF81 48 FFFFFF81 72
   08 06 3F FFFFFF81 6E FFFFFF84 00 40 08 07 45 FFFFFF81 6E FFFFFF84 00 FFFFFF82
   02 14 04 FFFFFF81 72 FFFFFF82 03 08 06 48 FFFFFF82 01 FFFFFFC0 00 41 08
   07 4A FFFFFF81 6E FFFFFF84 00 FFFFFF82 05 14 05 4C FFFFFF82 06 FFFFFF82 07 08
   06 48 FFFFFF82 04 FFFFFFC0 00 41 08 07 51 FFFFFF82 04 FFFFFFC0 00 FFFFFF81 72
   28 04 FFFFFF81 6E FFFFFF81 33 06 0A FFFFFF82 0A 67 FFFFFF84 FFFFFF80 FFFFFF80 FFFFFF80 02
   FFFFFF82 0B 02 05 6F 66 49 6E 74 13 05 FFFFFF82 09 FFFFFF82 0C 27
   10 03 14 00 41 08 0A 53 FFFFFF82 09 FFFFFF82 FFFFFFC2 FFFFFF80 FFFFFF84 00 FFFFFF82
   0E 15 02 FFFFFF82 0F 10 03 1D 56 41 08 0B FFFFFF81 1F FFFFFF82 09
   FFFFFF82 FFFFFF80 FFFFFFA0 FFFFFF80 04 FFFFFF82 0F 08 07 2B FFFFFF82 09 FFFFFF84 00 FFFFFF82 12
   14 04 FFFFFF82 13 FFFFFF82 14 10 04 FFFFFF81 23 FFFFFF82 09 08 07 53 FFFFFF82
   11 FFFFFFC0 00 FFFFFF82 0F 08 07 36 FFFFFF82 09 FFFFFF84 00 FFFFFF82 16 15 02
   FFFFFF82 17 10 04 39 FFFFFF81 48 41 08 06 3F FFFFFF82 09 FFFFFF84 00 40
   08 07 45 FFFFFF82 09 FFFFFF84 00 FFFFFF82 1A 14 03 41 FFFFFF82 1B 08 06
   48 FFFFFF82 19 FFFFFFC0 00 41 08 07 4A FFFFFF82 09 FFFFFF84 00 FFFFFF82 1D 14
   05 4C FFFFFF82 1E FFFFFF82 1F 08 06 48 FFFFFF82 1C FFFFFFC0 00 41 08 06
   51 FFFFFF82 1C FFFFFFC0 00 41 28 04 FFFFFF82 09 FFFFFF81 33 06 0A FFFFFF82 22
   67 FFFFFF84 FFFFFF80 FFFFFF80 FFFFFF80 02 FFFFFF82 23 02 06 6F 66 4C 6F 6E 67
   13 05 FFFFFF82 21 FFFFFF82 24 27 10 04 14 00 FFFFFF82 25 10 03 1D
   FFFFFF82 26 09 03 FFFFFF82 27 06 02 04 4C 6F 6E 67 08 0A 53
   FFFFFF82 21 FFFFFF82 FFFFFFC2 FFFFFF80 FFFFFF84 00 FFFFFF82 29 15 02 FFFFFF82 2A 10 04 1D
   56 FFFFFF82 25 08 0B FFFFFF81 1F FFFFFF82 21 FFFFFF82 FFFFFF80 FFFFFFA0 FFFFFF80 04 FFFFFF82 2A
   08 07 2B FFFFFF82 21 FFFFFF84 00 FFFFFF82 2D 14 04 FFFFFF82 2E FFFFFF82 2F 10
   04 FFFFFF81 23 FFFFFF82 21 08 07 53 FFFFFF82 2C FFFFFFC0 00 FFFFFF82 2A 08 07
   36 FFFFFF82 21 FFFFFF84 00 FFFFFF82 31 15 02 FFFFFF82 32 10 05 39 FFFFFF81 48
   FFFFFF82 25 08 06 3F FFFFFF82 21 FFFFFF84 00 40 08 07 45 FFFFFF82 21 FFFFFF84
   00 FFFFFF82 35 14 04 FFFFFF82 25 FFFFFF82 36 08 06 48 FFFFFF82 34 FFFFFFC0 00
   41 08 07 4A FFFFFF82 21 FFFFFF84 00 FFFFFF82 38 14 05 4C FFFFFF82 39 FFFFFF82
   3A 08 06 48 FFFFFF82 37 FFFFFFC0 00 41 08 07 51 FFFFFF82 37 FFFFFFC0 00
   FFFFFF82 25 28 04 FFFFFF82 21 FFFFFF81 33 06 0A FFFFFF82 3D 67 FFFFFF84 FFFFFF80 FFFFFF80
   FFFFFF80 02 FFFFFF82 3E 02 07 6F 66 46 6C 6F 61 74 13 05 FFFFFF82
   3C FFFFFF82 3F 27 10 04 14 00 FFFFFF82 40 10 03 1D FFFFFF82 41 09
   03 FFFFFF82 42 06 02 05 46 6C 6F 61 74 08 0A 53 FFFFFF82 3C
   FFFFFF82 FFFFFFC2 FFFFFF80 FFFFFF84 00 FFFFFF82 44 15 02 FFFFFF82 45 10 04 1D 56 FFFFFF82
   40 08 0B FFFFFF81 1F FFFFFF82 3C FFFFFF82 FFFFFF80 FFFFFFA0 FFFFFF80 04 FFFFFF82 45 08 07
   2B FFFFFF82 3C FFFFFF84 00 FFFFFF82 48 14 04 FFFFFF82 49 FFFFFF82 4A 10 04 FFFFFF81
   23 FFFFFF82 3C 08 07 53 FFFFFF82 47 FFFFFFC0 00 FFFFFF82 45 08 07 36 FFFFFF82
   3C FFFFFF84 00 FFFFFF82 4C 15 02 FFFFFF82 4D 10 05 39 FFFFFF81 48 FFFFFF82 40
   08 06 3F FFFFFF82 3C FFFFFF84 00 40 08 07 45 FFFFFF82 3C FFFFFF84 00 FFFFFF82
   50 14 04 FFFFFF82 40 FFFFFF82 51 08 06 48 FFFFFF82 4F FFFFFFC0 00 41 08
   07 4A FFFFFF82 3C FFFFFF84 00 FFFFFF82 53 14 05 4C FFFFFF82 54 FFFFFF82 55 08
   06 48 FFFFFF82 52 FFFFFFC0 00 41 08 07 51 FFFFFF82 52 FFFFFFC0 00 FFFFFF82 40
   28 04 FFFFFF82 3C FFFFFF81 33 06 0A FFFFFF82 58 67 FFFFFF84 FFFFFF80 FFFFFF80 FFFFFF80 02
   FFFFFF82 59 02 08 6F 66 44 6F 75 62 6C 65 13 05 FFFFFF82 57
   FFFFFF82 5A 27 10 04 14 00 FFFFFF82 5B 10 03 1D FFFFFF82 5C 09 03
   FFFFFF82 5D 06 02 06 44 6F 75 62 6C 65 08 0A 53 FFFFFF82 57
   FFFFFF82 FFFFFFC2 FFFFFF80 FFFFFF84 00 FFFFFF82 5F 15 02 FFFFFF82 60 10 04 1D 56 FFFFFF82
   5B 08 0B FFFFFF81 1F FFFFFF82 57 FFFFFF82 FFFFFF80 FFFFFFA0 FFFFFF80 04 FFFFFF82 60 08 07
   2B FFFFFF82 57 FFFFFF84 00 FFFFFF82 63 14 04 FFFFFF82 64 FFFFFF82 65 10 04 FFFFFF81
   23 FFFFFF82 57 08 07 53 FFFFFF82 62 FFFFFFC0 00 FFFFFF82 60 08 07 36 FFFFFF82
   57 FFFFFF84 00 FFFFFF82 67 15 02 FFFFFF82 68 10 05 39 FFFFFF81 48 FFFFFF82 5B
   08 06 3F FFFFFF82 57 FFFFFF84 00 40 08 07 45 FFFFFF82 57 FFFFFF84 00 FFFFFF82
   6B 14 04 FFFFFF82 5B FFFFFF82 6C 08 06 48 FFFFFF82 6A FFFFFFC0 00 41 08
   07 4A FFFFFF82 57 FFFFFF84 00 FFFFFF82 6E 14 05 4C FFFFFF82 6F FFFFFF82 70 08
   06 48 FFFFFF82 6D FFFFFFC0 00 41 08 07 51 FFFFFF82 6D FFFFFFC0 00 FFFFFF82 5B
   28 04 FFFFFF82 57 FFFFFF81 33 06 0A FFFFFF82 73 67 FFFFFF84 FFFFFF80 FFFFFF80 FFFFFF80 02
   FFFFFF82 74 02 09 6F 66 42 6F 6F 6C 65 61 6E 13 05 FFFFFF82
   72 FFFFFF82 75 27 10 04 14 00 FFFFFF82 76 10 03 1D FFFFFF82 77 09
   03 FFFFFF82 78 06 02 07 42 6F 6F 6C 65 61 6E 08 0A 53
   FFFFFF82 72 FFFFFF82 FFFFFFC2 FFFFFF80 FFFFFF84 00 FFFFFF82 7A 15 02 FFFFFF82 7B 10 04 1D
   56 FFFFFF82 76 08 0B FFFFFF81 1F FFFFFF82 72 FFFFFF82 FFFFFF80 FFFFFFA0 FFFFFF80 04 FFFFFF82 7B
   08 07 2B FFFFFF82 72 FFFFFF84 00 FFFFFF82 7E 14 04 FFFFFF82 7F FFFFFF83 00 10
   04 FFFFFF81 23 FFFFFF82 72 08 07 53 FFFFFF82 7D FFFFFFC0 00 FFFFFF82 7B 08 07
   36 FFFFFF82 72 FFFFFF84 00 FFFFFF83 02 15 02 FFFFFF83 03 10 05 39 FFFFFF81 48
   FFFFFF82 76 08 06 3F FFFFFF82 72 FFFFFF84 00 40 08 07 45 FFFFFF82 72 FFFFFF84
   00 FFFFFF83 06 14 04 FFFFFF82 76 FFFFFF83 07 08 06 48 FFFFFF83 05 FFFFFFC0 00
   41 08 07 4A FFFFFF82 72 FFFFFF84 00 FFFFFF83 09 14 05 4C FFFFFF83 0A FFFFFF83
   0B 08 06 48 FFFFFF83 08 FFFFFFC0 00 41 08 07 51 FFFFFF83 08 FFFFFFC0 00
   FFFFFF82 76 28 04 FFFFFF82 72 FFFFFF81 33 06 0A FFFFFF83 0E 67 FFFFFF84 FFFFFF80 FFFFFF80
   FFFFFF80 02 FFFFFF83 0F 02 06 6F 66 55 6E 69 74 13 05 FFFFFF83 0D
   FFFFFF83 10 27 10 03 14 00 4C 08 0A 53 FFFFFF83 0D FFFFFF82 FFFFFFC2 FFFFFF80
   FFFFFF84 00 FFFFFF83 12 15 02 FFFFFF83 13 10 03 1D 56 4C 08 0B FFFFFF81
   1F FFFFFF83 0D FFFFFF82 FFFFFF80 FFFFFFA0 FFFFFF80 04 FFFFFF83 13 08 07 2B FFFFFF83 0D FFFFFF84
   00 FFFFFF83 16 14 04 FFFFFF83 17 FFFFFF83 18 10 04 FFFFFF81 23 FFFFFF83 0D 08
   07 53 FFFFFF83 15 FFFFFFC0 00 FFFFFF83 13 08 07 36 FFFFFF83 0D FFFFFF84 00 FFFFFF83
   1A 15 02 FFFFFF83 1B 10 04 39 FFFFFF81 48 4C 08 06 3F FFFFFF83 0D
   FFFFFF84 00 40 08 07 45 FFFFFF83 0D FFFFFF84 00 FFFFFF83 1E 14 03 4C FFFFFF83
   1F 08 06 48 FFFFFF83 1D FFFFFFC0 00 41 08 07 4A FFFFFF83 0D FFFFFF84 00
   FFFFFF83 21 14 05 4C FFFFFF83 22 FFFFFF83 23 08 06 48 FFFFFF83 20 FFFFFFC0 00
   41 08 06 51 FFFFFF83 20 FFFFFFC0 00 4C 28 04 FFFFFF83 0D FFFFFF81 33 
  InnerClass: 
   public final #814= #813 of #117; //ofInt=class scala/collection/mutable/WrappedArray$ofInt of class scala/collection/mutable/WrappedArray
   public final #817= #816 of #117; //ofRef=class scala/collection/mutable/WrappedArray$ofRef of class scala/collection/mutable/WrappedArray
   public final #820= #819 of #117; //ofUnit=class scala/collection/mutable/WrappedArray$ofUnit of class scala/collection/mutable/WrappedArray
   public final #823= #822 of #117; //ofLong=class scala/collection/mutable/WrappedArray$ofLong of class scala/collection/mutable/WrappedArray
   public final #826= #825 of #117; //ofChar=class scala/collection/mutable/WrappedArray$ofChar of class scala/collection/mutable/WrappedArray
   public final #829= #828 of #117; //ofByte=class scala/collection/mutable/WrappedArray$ofByte of class scala/collection/mutable/WrappedArray
   public final #832= #831 of #117; //$anon$1=class scala/collection/mutable/WrappedArray$$anon$1 of class scala/collection/mutable/WrappedArray
   public final #835= #834 of #117; //ofFloat=class scala/collection/mutable/WrappedArray$ofFloat of class scala/collection/mutable/WrappedArray
   public final #838= #837 of #117; //ofShort=class scala/collection/mutable/WrappedArray$ofShort of class scala/collection/mutable/WrappedArray
   public final #841= #840 of #117; //ofDouble=class scala/collection/mutable/WrappedArray$ofDouble of class scala/collection/mutable/WrappedArray
   public final #844= #843 of #117; //ofBoolean=class scala/collection/mutable/WrappedArray$ofBoolean of class scala/collection/mutable/WrappedArray
   public #849= #846 of #848; //WithFilter=class scala/collection/TraversableLike$WithFilter of class scala/collection/TraversableLike
  minor version: 0
  major version: 49
  Constant pool:
const #1 = Asciz	SourceFile;
const #2 = Asciz	WrappedArray.scala;
const #3 = Asciz	canBuildFrom;
const #4 = Asciz	(Lscala/reflect/ClassManifest;)Lscala/collection/generic/CanBuildFrom;;
const #5 = Asciz	Code;
const #6 = Asciz	scala/collection/mutable/WrappedArray$;
const #7 = class	#6;	//  scala/collection/mutable/WrappedArray$
const #8 = Asciz	MODULE$;
const #9 = Asciz	Lscala/collection/mutable/WrappedArray$;;
const #10 = NameAndType	#8:#9;//  MODULE$:Lscala/collection/mutable/WrappedArray$;
const #11 = Field	#7.#10;	//  scala/collection/mutable/WrappedArray$.MODULE$:Lscala/collection/mutable/WrappedArray$;
const #12 = NameAndType	#3:#4;//  canBuildFrom:(Lscala/reflect/ClassManifest;)Lscala/collection/generic/CanBuildFrom;
const #13 = Method	#7.#12;	//  scala/collection/mutable/WrappedArray$.canBuildFrom:(Lscala/reflect/ClassManifest;)Lscala/collection/generic/CanBuildFrom;
const #14 = Asciz	<T:Ljava/lang/Object;>(Lscala/reflect/ClassManifest<TT;>;)Lscala/collection/generic/CanBuildFrom<Lscala/collection/mutable/WrappedArray<*>;TT;Lscala/collection/mutable/WrappedArray<TT;>;>;;
const #15 = Asciz	Signature;
const #16 = Asciz	make;
const #17 = Asciz	(Ljava/lang/Object;)Lscala/collection/mutable/WrappedArray;;
const #18 = NameAndType	#16:#17;//  make:(Ljava/lang/Object;)Lscala/collection/mutable/WrappedArray;
const #19 = Method	#7.#18;	//  scala/collection/mutable/WrappedArray$.make:(Ljava/lang/Object;)Lscala/collection/mutable/WrappedArray;
const #20 = Asciz	<T:Ljava/lang/Object;>(Ljava/lang/Object;)Lscala/collection/mutable/WrappedArray<TT;>;;
const #21 = Asciz	<init>;
const #22 = Asciz	()V;
const #23 = Asciz	LineNumberTable;
const #24 = Asciz	java/lang/Object;
const #25 = class	#24;	//  java/lang/Object
const #26 = NameAndType	#21:#22;//  "<init>":()V
const #27 = Method	#25.#26;	//  java/lang/Object."<init>":()V
const #28 = Asciz	scala/collection/TraversableLike$class;
const #29 = class	#28;	//  scala/collection/TraversableLike$class
const #30 = Asciz	$init$;
const #31 = Asciz	(Lscala/collection/TraversableLike;)V;
const #32 = NameAndType	#30:#31;//  $init$:(Lscala/collection/TraversableLike;)V
const #33 = Method	#29.#32;	//  scala/collection/TraversableLike$class.$init$:(Lscala/collection/TraversableLike;)V
const #34 = Asciz	scala/collection/generic/GenericTraversableTemplate$class;
const #35 = class	#34;	//  scala/collection/generic/GenericTraversableTemplate$class
const #36 = Asciz	(Lscala/collection/generic/GenericTraversableTemplate;)V;
const #37 = NameAndType	#30:#36;//  $init$:(Lscala/collection/generic/GenericTraversableTemplate;)V
const #38 = Method	#35.#37;	//  scala/collection/generic/GenericTraversableTemplate$class.$init$:(Lscala/collection/generic/GenericTraversableTemplate;)V
const #39 = Asciz	scala/collection/Traversable$class;
const #40 = class	#39;	//  scala/collection/Traversable$class
const #41 = Asciz	(Lscala/collection/Traversable;)V;
const #42 = NameAndType	#30:#41;//  $init$:(Lscala/collection/Traversable;)V
const #43 = Method	#40.#42;	//  scala/collection/Traversable$class.$init$:(Lscala/collection/Traversable;)V
const #44 = Asciz	scala/collection/mutable/Traversable$class;
const #45 = class	#44;	//  scala/collection/mutable/Traversable$class
const #46 = Asciz	(Lscala/collection/mutable/Traversable;)V;
const #47 = NameAndType	#30:#46;//  $init$:(Lscala/collection/mutable/Traversable;)V
const #48 = Method	#45.#47;	//  scala/collection/mutable/Traversable$class.$init$:(Lscala/collection/mutable/Traversable;)V
const #49 = Asciz	scala/collection/IterableLike$class;
const #50 = class	#49;	//  scala/collection/IterableLike$class
const #51 = Asciz	(Lscala/collection/IterableLike;)V;
const #52 = NameAndType	#30:#51;//  $init$:(Lscala/collection/IterableLike;)V
const #53 = Method	#50.#52;	//  scala/collection/IterableLike$class.$init$:(Lscala/collection/IterableLike;)V
const #54 = Asciz	scala/collection/Iterable$class;
const #55 = class	#54;	//  scala/collection/Iterable$class
const #56 = Asciz	(Lscala/collection/Iterable;)V;
const #57 = NameAndType	#30:#56;//  $init$:(Lscala/collection/Iterable;)V
const #58 = Method	#55.#57;	//  scala/collection/Iterable$class.$init$:(Lscala/collection/Iterable;)V
const #59 = Asciz	scala/collection/mutable/Iterable$class;
const #60 = class	#59;	//  scala/collection/mutable/Iterable$class
const #61 = Asciz	(Lscala/collection/mutable/Iterable;)V;
const #62 = NameAndType	#30:#61;//  $init$:(Lscala/collection/mutable/Iterable;)V
const #63 = Method	#60.#62;	//  scala/collection/mutable/Iterable$class.$init$:(Lscala/collection/mutable/Iterable;)V
const #64 = Asciz	scala/Function1$class;
const #65 = class	#64;	//  scala/Function1$class
const #66 = Asciz	(Lscala/Function1;)V;
const #67 = NameAndType	#30:#66;//  $init$:(Lscala/Function1;)V
const #68 = Method	#65.#67;	//  scala/Function1$class.$init$:(Lscala/Function1;)V
const #69 = Asciz	scala/PartialFunction$class;
const #70 = class	#69;	//  scala/PartialFunction$class
const #71 = Asciz	(Lscala/PartialFunction;)V;
const #72 = NameAndType	#30:#71;//  $init$:(Lscala/PartialFunction;)V
const #73 = Method	#70.#72;	//  scala/PartialFunction$class.$init$:(Lscala/PartialFunction;)V
const #74 = Asciz	scala/collection/SeqLike$class;
const #75 = class	#74;	//  scala/collection/SeqLike$class
const #76 = Asciz	(Lscala/collection/SeqLike;)V;
const #77 = NameAndType	#30:#76;//  $init$:(Lscala/collection/SeqLike;)V
const #78 = Method	#75.#77;	//  scala/collection/SeqLike$class.$init$:(Lscala/collection/SeqLike;)V
const #79 = Asciz	scala/collection/Seq$class;
const #80 = class	#79;	//  scala/collection/Seq$class
const #81 = Asciz	(Lscala/collection/Seq;)V;
const #82 = NameAndType	#30:#81;//  $init$:(Lscala/collection/Seq;)V
const #83 = Method	#80.#82;	//  scala/collection/Seq$class.$init$:(Lscala/collection/Seq;)V
const #84 = Asciz	scala/collection/mutable/Seq$class;
const #85 = class	#84;	//  scala/collection/mutable/Seq$class
const #86 = Asciz	(Lscala/collection/mutable/Seq;)V;
const #87 = NameAndType	#30:#86;//  $init$:(Lscala/collection/mutable/Seq;)V
const #88 = Method	#85.#87;	//  scala/collection/mutable/Seq$class.$init$:(Lscala/collection/mutable/Seq;)V
const #89 = Asciz	scala/collection/IndexedSeqLike$class;
const #90 = class	#89;	//  scala/collection/IndexedSeqLike$class
const #91 = Asciz	(Lscala/collection/IndexedSeqLike;)V;
const #92 = NameAndType	#30:#91;//  $init$:(Lscala/collection/IndexedSeqLike;)V
const #93 = Method	#90.#92;	//  scala/collection/IndexedSeqLike$class.$init$:(Lscala/collection/IndexedSeqLike;)V
const #94 = Asciz	scala/collection/IndexedSeq$class;
const #95 = class	#94;	//  scala/collection/IndexedSeq$class
const #96 = Asciz	(Lscala/collection/IndexedSeq;)V;
const #97 = NameAndType	#30:#96;//  $init$:(Lscala/collection/IndexedSeq;)V
const #98 = Method	#95.#97;	//  scala/collection/IndexedSeq$class.$init$:(Lscala/collection/IndexedSeq;)V
const #99 = Asciz	scala/collection/mutable/IndexedSeqLike$class;
const #100 = class	#99;	//  scala/collection/mutable/IndexedSeqLike$class
const #101 = Asciz	(Lscala/collection/mutable/IndexedSeqLike;)V;
const #102 = NameAndType	#30:#101;//  $init$:(Lscala/collection/mutable/IndexedSeqLike;)V
const #103 = Method	#100.#102;	//  scala/collection/mutable/IndexedSeqLike$class.$init$:(Lscala/collection/mutable/IndexedSeqLike;)V
const #104 = Asciz	scala/collection/mutable/IndexedSeq$class;
const #105 = class	#104;	//  scala/collection/mutable/IndexedSeq$class
const #106 = Asciz	(Lscala/collection/mutable/IndexedSeq;)V;
const #107 = NameAndType	#30:#106;//  $init$:(Lscala/collection/mutable/IndexedSeq;)V
const #108 = Method	#105.#107;	//  scala/collection/mutable/IndexedSeq$class.$init$:(Lscala/collection/mutable/IndexedSeq;)V
const #109 = Asciz	scala/collection/mutable/ArrayLike$class;
const #110 = class	#109;	//  scala/collection/mutable/ArrayLike$class
const #111 = Asciz	(Lscala/collection/mutable/ArrayLike;)V;
const #112 = NameAndType	#30:#111;//  $init$:(Lscala/collection/mutable/ArrayLike;)V
const #113 = Method	#110.#112;	//  scala/collection/mutable/ArrayLike$class.$init$:(Lscala/collection/mutable/ArrayLike;)V
const #114 = Asciz	thisCollection;
const #115 = Asciz	()Lscala/collection/mutable/IndexedSeq;;
const #116 = Asciz	scala/collection/mutable/WrappedArray;
const #117 = class	#116;	//  scala/collection/mutable/WrappedArray
const #118 = Asciz	()Lscala/collection/mutable/WrappedArray;;
const #119 = NameAndType	#114:#118;//  thisCollection:()Lscala/collection/mutable/WrappedArray;
const #120 = Method	#117.#119;	//  scala/collection/mutable/WrappedArray.thisCollection:()Lscala/collection/mutable/WrappedArray;
const #121 = Asciz	()Lscala/collection/IndexedSeq;;
const #122 = Asciz	()Lscala/collection/Seq;;
const #123 = Asciz	()Lscala/collection/Iterable;;
const #124 = Asciz	()Lscala/collection/Traversable;;
const #125 = Asciz	toCollection;
const #126 = Asciz	(Ljava/lang/Object;)Lscala/collection/mutable/IndexedSeq;;
const #127 = Asciz	(Lscala/collection/mutable/WrappedArray;)Lscala/collection/mutable/WrappedArray;;
const #128 = NameAndType	#125:#127;//  toCollection:(Lscala/collection/mutable/WrappedArray;)Lscala/collection/mutable/WrappedArray;
const #129 = Method	#117.#128;	//  scala/collection/mutable/WrappedArray.toCollection:(Lscala/collection/mutable/WrappedArray;)Lscala/collection/mutable/WrappedArray;
const #130 = Asciz	this;
const #131 = Asciz	Lscala/collection/mutable/WrappedArray;;
const #132 = Asciz	repr;
const #133 = Asciz	Ljava/lang/Object;;
const #134 = Asciz	LocalVariableTable;
const #135 = Asciz	(Ljava/lang/Object;)Lscala/collection/IndexedSeq;;
const #136 = Asciz	(Ljava/lang/Object;)Lscala/collection/Seq;;
const #137 = Asciz	(Ljava/lang/Object;)Lscala/collection/Iterable;;
const #138 = Asciz	(Ljava/lang/Object;)Lscala/collection/Traversable;;
const #139 = Asciz	view;
const #140 = Asciz	(II)Lscala/collection/IndexedSeqView;;
const #141 = Asciz	scala/collection/mutable/IndexedSeqLike;
const #142 = class	#141;	//  scala/collection/mutable/IndexedSeqLike
const #143 = Asciz	(II)Lscala/collection/mutable/IndexedSeqView;;
const #144 = NameAndType	#139:#143;//  view:(II)Lscala/collection/mutable/IndexedSeqView;
const #145 = InterfaceMethod	#142.#144;	//  scala/collection/mutable/IndexedSeqLike.view:(II)Lscala/collection/mutable/IndexedSeqView;
const #146 = Asciz	from;
const #147 = Asciz	I;
const #148 = Asciz	until;
const #149 = Asciz	(II)Lscala/collection/SeqView;;
const #150 = Asciz	(II)Lscala/collection/IterableView;;
const #151 = Asciz	(II)Lscala/collection/TraversableView;;
const #152 = Asciz	isDefinedAt;
const #153 = Asciz	(Ljava/lang/Object;)Z;
const #154 = Asciz	scala/runtime/BoxesRunTime;
const #155 = class	#154;	//  scala/runtime/BoxesRunTime
const #156 = Asciz	unboxToInt;
const #157 = Asciz	(Ljava/lang/Object;)I;
const #158 = NameAndType	#156:#157;//  unboxToInt:(Ljava/lang/Object;)I
const #159 = Method	#155.#158;	//  scala/runtime/BoxesRunTime.unboxToInt:(Ljava/lang/Object;)I
const #160 = Asciz	scala/collection/SeqLike;
const #161 = class	#160;	//  scala/collection/SeqLike
const #162 = Asciz	(I)Z;
const #163 = NameAndType	#152:#162;//  isDefinedAt:(I)Z
const #164 = InterfaceMethod	#161.#163;	//  scala/collection/SeqLike.isDefinedAt:(I)Z
const #165 = Asciz	x;
const #166 = Asciz	andThen;
const #167 = Asciz	(Lscala/Function1;)Lscala/Function1;;
const #168 = Asciz	scala/PartialFunction;
const #169 = class	#168;	//  scala/PartialFunction
const #170 = Asciz	(Lscala/Function1;)Lscala/PartialFunction;;
const #171 = NameAndType	#166:#170;//  andThen:(Lscala/Function1;)Lscala/PartialFunction;
const #172 = InterfaceMethod	#169.#171;	//  scala/PartialFunction.andThen:(Lscala/Function1;)Lscala/PartialFunction;
const #173 = Asciz	g;
const #174 = Asciz	Lscala/Function1;;
const #175 = Asciz	newBuilder;
const #176 = Asciz	()Lscala/collection/mutable/Builder;;
const #177 = Asciz	scala/collection/mutable/WrappedArrayBuilder;
const #178 = class	#177;	//  scala/collection/mutable/WrappedArrayBuilder
const #179 = Asciz	elemManifest;
const #180 = Asciz	()Lscala/reflect/ClassManifest;;
const #181 = NameAndType	#179:#180;//  elemManifest:()Lscala/reflect/ClassManifest;
const #182 = Method	#117.#181;	//  scala/collection/mutable/WrappedArray.elemManifest:()Lscala/reflect/ClassManifest;
const #183 = Asciz	(Lscala/reflect/ClassManifest;)V;
const #184 = NameAndType	#21:#183;//  "<init>":(Lscala/reflect/ClassManifest;)V
const #185 = Method	#178.#184;	//  scala/collection/mutable/WrappedArrayBuilder."<init>":(Lscala/reflect/ClassManifest;)V
const #186 = Asciz	()Lscala/collection/mutable/Builder<TT;Lscala/collection/mutable/WrappedArray<TT;>;>;;
const #187 = Asciz	stringPrefix;
const #188 = Asciz	()Ljava/lang/String;;
const #189 = Asciz	WrappedArray;
const #190 = String	#189;	//  WrappedArray
const #191 = Asciz	array;
const #192 = Asciz	()Ljava/lang/Object;;
const #193 = Asciz	()[TT;;
const #194 = Asciz	update;
const #195 = Asciz	(ILjava/lang/Object;)V;
const #196 = Asciz	(ITT;)V;
const #197 = Asciz	apply;
const #198 = Asciz	(I)Ljava/lang/Object;;
const #199 = Asciz	(I)TT;;
const #200 = Asciz	length;
const #201 = Asciz	()I;
const #202 = Asciz	()Lscala/reflect/ClassManifest<TT;>;;
const #203 = Asciz	(Lscala/collection/mutable/WrappedArray<TT;>;)Lscala/collection/mutable/WrappedArray<TT;>;;
const #204 = Asciz	()Lscala/collection/mutable/WrappedArray<TT;>;;
const #205 = Asciz	withFilter;
const #206 = Asciz	(Lscala/Function1;)Lscala/collection/TraversableLike$WithFilter;;
const #207 = Asciz	(Lscala/collection/TraversableLike;Lscala/Function1;)Lscala/collection/TraversableLike$WithFilter;;
const #208 = NameAndType	#205:#207;//  withFilter:(Lscala/collection/TraversableLike;Lscala/Function1;)Lscala/collection/TraversableLike$WithFilter;
const #209 = Method	#29.#208;	//  scala/collection/TraversableLike$class.withFilter:(Lscala/collection/TraversableLike;Lscala/Function1;)Lscala/collection/TraversableLike$WithFilter;
const #210 = Asciz	p;
const #211 = Asciz	addString;
const #212 = Asciz	(Lscala/collection/mutable/StringBuilder;)Lscala/collection/mutable/StringBuilder;;
const #213 = Asciz	(Lscala/collection/TraversableLike;Lscala/collection/mutable/StringBuilder;)Lscala/collection/mutable/StringBuilder;;
const #214 = NameAndType	#211:#213;//  addString:(Lscala/collection/TraversableLike;Lscala/collection/mutable/StringBuilder;)Lscala/collection/mutable/StringBuilder;
const #215 = Method	#29.#214;	//  scala/collection/TraversableLike$class.addString:(Lscala/collection/TraversableLike;Lscala/collection/mutable/StringBuilder;)Lscala/collection/mutable/StringBuilder;
const #216 = Asciz	b;
const #217 = Asciz	Lscala/collection/mutable/StringBuilder;;
const #218 = Asciz	(Lscala/collection/mutable/StringBuilder;Ljava/lang/String;)Lscala/collection/mutable/StringBuilder;;
const #219 = Asciz	(Lscala/collection/TraversableLike;Lscala/collection/mutable/StringBuilder;Ljava/lang/String;)Lscala/collection/mutable/StringBuilder;;
const #220 = NameAndType	#211:#219;//  addString:(Lscala/collection/TraversableLike;Lscala/collection/mutable/StringBuilder;Ljava/lang/String;)Lscala/collection/mutable/StringBuilder;
const #221 = Method	#29.#220;	//  scala/collection/TraversableLike$class.addString:(Lscala/collection/TraversableLike;Lscala/collection/mutable/StringBuilder;Ljava/lang/String;)Lscala/collection/mutable/StringBuilder;
const #222 = Asciz	sep;
const #223 = Asciz	Ljava/lang/String;;
const #224 = Asciz	(Lscala/collection/mutable/StringBuilder;Ljava/lang/String;Ljava/lang/String;Ljava/lang/String;)Lscala/collection/mutable/StringBuilder;;
const #225 = Asciz	(Lscala/collection/TraversableLike;Lscala/collection/mutable/StringBuilder;Ljava/lang/String;Ljava/lang/String;Ljava/lang/String;)Lscala/collection/mutable/StringBuilder;;
const #226 = NameAndType	#211:#225;//  addString:(Lscala/collection/TraversableLike;Lscala/collection/mutable/StringBuilder;Ljava/lang/String;Ljava/lang/String;Ljava/lang/String;)Lscala/collection/mutable/StringBuilder;
const #227 = Method	#29.#226;	//  scala/collection/TraversableLike$class.addString:(Lscala/collection/TraversableLike;Lscala/collection/mutable/StringBuilder;Ljava/lang/String;Ljava/lang/String;Ljava/lang/String;)Lscala/collection/mutable/StringBuilder;
const #228 = Asciz	start;
const #229 = Asciz	end;
const #230 = Asciz	mkString;
const #231 = Asciz	(Lscala/collection/TraversableLike;)Ljava/lang/String;;
const #232 = NameAndType	#230:#231;//  mkString:(Lscala/collection/TraversableLike;)Ljava/lang/String;
const #233 = Method	#29.#232;	//  scala/collection/TraversableLike$class.mkString:(Lscala/collection/TraversableLike;)Ljava/lang/String;
const #234 = Asciz	(Ljava/lang/String;)Ljava/lang/String;;
const #235 = Asciz	(Lscala/collection/TraversableLike;Ljava/lang/String;)Ljava/lang/String;;
const #236 = NameAndType	#230:#235;//  mkString:(Lscala/collection/TraversableLike;Ljava/lang/String;)Ljava/lang/String;
const #237 = Method	#29.#236;	//  scala/collection/TraversableLike$class.mkString:(Lscala/collection/TraversableLike;Ljava/lang/String;)Ljava/lang/String;
const #238 = Asciz	(Ljava/lang/String;Ljava/lang/String;Ljava/lang/String;)Ljava/lang/String;;
const #239 = Asciz	(Lscala/collection/TraversableLike;Ljava/lang/String;Ljava/lang/String;Ljava/lang/String;)Ljava/lang/String;;
const #240 = NameAndType	#230:#239;//  mkString:(Lscala/collection/TraversableLike;Ljava/lang/String;Ljava/lang/String;Ljava/lang/String;)Ljava/lang/String;
const #241 = Method	#29.#240;	//  scala/collection/TraversableLike$class.mkString:(Lscala/collection/TraversableLike;Ljava/lang/String;Ljava/lang/String;Ljava/lang/String;)Ljava/lang/String;
const #242 = Asciz	toSet;
const #243 = Asciz	()Lscala/collection/immutable/Set;;
const #244 = Asciz	(Lscala/collection/TraversableLike;)Lscala/collection/immutable/Set;;
const #245 = NameAndType	#242:#244;//  toSet:(Lscala/collection/TraversableLike;)Lscala/collection/immutable/Set;
const #246 = Method	#29.#245;	//  scala/collection/TraversableLike$class.toSet:(Lscala/collection/TraversableLike;)Lscala/collection/immutable/Set;
const #247 = Asciz	toIndexedSeq;
const #248 = Asciz	(Lscala/collection/TraversableLike;)Lscala/collection/mutable/IndexedSeq;;
const #249 = NameAndType	#247:#248;//  toIndexedSeq:(Lscala/collection/TraversableLike;)Lscala/collection/mutable/IndexedSeq;
const #250 = Method	#29.#249;	//  scala/collection/TraversableLike$class.toIndexedSeq:(Lscala/collection/TraversableLike;)Lscala/collection/mutable/IndexedSeq;
const #251 = Asciz	toList;
const #252 = Asciz	()Lscala/collection/immutable/List;;
const #253 = Asciz	(Lscala/collection/TraversableLike;)Lscala/collection/immutable/List;;
const #254 = NameAndType	#251:#253;//  toList:(Lscala/collection/TraversableLike;)Lscala/collection/immutable/List;
const #255 = Method	#29.#254;	//  scala/collection/TraversableLike$class.toList:(Lscala/collection/TraversableLike;)Lscala/collection/immutable/List;
const #256 = Asciz	toArray;
const #257 = Asciz	(Lscala/reflect/ClassManifest;)Ljava/lang/Object;;
const #258 = Asciz	(Lscala/collection/TraversableLike;Lscala/reflect/ClassManifest;)Ljava/lang/Object;;
const #259 = NameAndType	#256:#258;//  toArray:(Lscala/collection/TraversableLike;Lscala/reflect/ClassManifest;)Ljava/lang/Object;
const #260 = Method	#29.#259;	//  scala/collection/TraversableLike$class.toArray:(Lscala/collection/TraversableLike;Lscala/reflect/ClassManifest;)Ljava/lang/Object;
const #261 = Asciz	evidence$1;
const #262 = Asciz	Lscala/reflect/ClassManifest;;
const #263 = Asciz	copyToArray;
const #264 = Asciz	(Ljava/lang/Object;I)V;
const #265 = Asciz	(Lscala/collection/TraversableLike;Ljava/lang/Object;I)V;
const #266 = NameAndType	#263:#265;//  copyToArray:(Lscala/collection/TraversableLike;Ljava/lang/Object;I)V
const #267 = Method	#29.#266;	//  scala/collection/TraversableLike$class.copyToArray:(Lscala/collection/TraversableLike;Ljava/lang/Object;I)V
const #268 = Asciz	xs;
const #269 = Asciz	copyToBuffer;
const #270 = Asciz	(Lscala/collection/mutable/Buffer;)V;
const #271 = Asciz	(Lscala/collection/TraversableLike;Lscala/collection/mutable/Buffer;)V;
const #272 = NameAndType	#269:#271;//  copyToBuffer:(Lscala/collection/TraversableLike;Lscala/collection/mutable/Buffer;)V
const #273 = Method	#29.#272;	//  scala/collection/TraversableLike$class.copyToBuffer:(Lscala/collection/TraversableLike;Lscala/collection/mutable/Buffer;)V
const #274 = Asciz	dest;
const #275 = Asciz	Lscala/collection/mutable/Buffer;;
const #276 = Asciz	lastOption;
const #277 = Asciz	()Lscala/Option;;
const #278 = Asciz	(Lscala/collection/TraversableLike;)Lscala/Option;;
const #279 = NameAndType	#276:#278;//  lastOption:(Lscala/collection/TraversableLike;)Lscala/Option;
const #280 = Method	#29.#279;	//  scala/collection/TraversableLike$class.lastOption:(Lscala/collection/TraversableLike;)Lscala/Option;
const #281 = Asciz	headOption;
const #282 = NameAndType	#281:#278;//  headOption:(Lscala/collection/TraversableLike;)Lscala/Option;
const #283 = Method	#29.#282;	//  scala/collection/TraversableLike$class.headOption:(Lscala/collection/TraversableLike;)Lscala/Option;
const #284 = Asciz	max;
const #285 = Asciz	(Lscala/math/Ordering;)Ljava/lang/Object;;
const #286 = Asciz	(Lscala/collection/TraversableLike;Lscala/math/Ordering;)Ljava/lang/Object;;
const #287 = NameAndType	#284:#286;//  max:(Lscala/collection/TraversableLike;Lscala/math/Ordering;)Ljava/lang/Object;
const #288 = Method	#29.#287;	//  scala/collection/TraversableLike$class.max:(Lscala/collection/TraversableLike;Lscala/math/Ordering;)Ljava/lang/Object;
const #289 = Asciz	cmp;
const #290 = Asciz	Lscala/math/Ordering;;
const #291 = Asciz	min;
const #292 = NameAndType	#291:#286;//  min:(Lscala/collection/TraversableLike;Lscala/math/Ordering;)Ljava/lang/Object;
const #293 = Method	#29.#292;	//  scala/collection/TraversableLike$class.min:(Lscala/collection/TraversableLike;Lscala/math/Ordering;)Ljava/lang/Object;
const #294 = Asciz	product;
const #295 = Asciz	(Lscala/math/Numeric;)Ljava/lang/Object;;
const #296 = Asciz	(Lscala/collection/TraversableLike;Lscala/math/Numeric;)Ljava/lang/Object;;
const #297 = NameAndType	#294:#296;//  product:(Lscala/collection/TraversableLike;Lscala/math/Numeric;)Ljava/lang/Object;
const #298 = Method	#29.#297;	//  scala/collection/TraversableLike$class.product:(Lscala/collection/TraversableLike;Lscala/math/Numeric;)Ljava/lang/Object;
const #299 = Asciz	num;
const #300 = Asciz	Lscala/math/Numeric;;
const #301 = Asciz	sum;
const #302 = NameAndType	#301:#296;//  sum:(Lscala/collection/TraversableLike;Lscala/math/Numeric;)Ljava/lang/Object;
const #303 = Method	#29.#302;	//  scala/collection/TraversableLike$class.sum:(Lscala/collection/TraversableLike;Lscala/math/Numeric;)Ljava/lang/Object;
const #304 = Asciz	reduceRightOption;
const #305 = Asciz	(Lscala/Function2;)Lscala/Option;;
const #306 = Asciz	(Lscala/collection/TraversableLike;Lscala/Function2;)Lscala/Option;;
const #307 = NameAndType	#304:#306;//  reduceRightOption:(Lscala/collection/TraversableLike;Lscala/Function2;)Lscala/Option;
const #308 = Method	#29.#307;	//  scala/collection/TraversableLike$class.reduceRightOption:(Lscala/collection/TraversableLike;Lscala/Function2;)Lscala/Option;
const #309 = Asciz	op;
const #310 = Asciz	Lscala/Function2;;
const #311 = Asciz	reduceLeftOption;
const #312 = NameAndType	#311:#306;//  reduceLeftOption:(Lscala/collection/TraversableLike;Lscala/Function2;)Lscala/Option;
const #313 = Method	#29.#312;	//  scala/collection/TraversableLike$class.reduceLeftOption:(Lscala/collection/TraversableLike;Lscala/Function2;)Lscala/Option;
const #314 = Asciz	$colon$bslash;
const #315 = Asciz	(Ljava/lang/Object;Lscala/Function2;)Ljava/lang/Object;;
const #316 = Asciz	(Lscala/collection/TraversableLike;Ljava/lang/Object;Lscala/Function2;)Ljava/lang/Object;;
const #317 = NameAndType	#314:#316;//  $colon$bslash:(Lscala/collection/TraversableLike;Ljava/lang/Object;Lscala/Function2;)Ljava/lang/Object;
const #318 = Method	#29.#317;	//  scala/collection/TraversableLike$class.$colon$bslash:(Lscala/collection/TraversableLike;Ljava/lang/Object;Lscala/Function2;)Ljava/lang/Object;
const #319 = Asciz	z;
const #320 = Asciz	$div$colon;
const #321 = NameAndType	#320:#316;//  $div$colon:(Lscala/collection/TraversableLike;Ljava/lang/Object;Lscala/Function2;)Ljava/lang/Object;
const #322 = Method	#29.#321;	//  scala/collection/TraversableLike$class.$div$colon:(Lscala/collection/TraversableLike;Ljava/lang/Object;Lscala/Function2;)Ljava/lang/Object;
const #323 = Asciz	count;
const #324 = Asciz	(Lscala/Function1;)I;
const #325 = Asciz	(Lscala/collection/TraversableLike;Lscala/Function1;)I;
const #326 = NameAndType	#323:#325;//  count:(Lscala/collection/TraversableLike;Lscala/Function1;)I
const #327 = Method	#29.#326;	//  scala/collection/TraversableLike$class.count:(Lscala/collection/TraversableLike;Lscala/Function1;)I
const #328 = Asciz	groupBy;
const #329 = Asciz	(Lscala/Function1;)Lscala/collection/Map;;
const #330 = Asciz	(Lscala/collection/TraversableLike;Lscala/Function1;)Lscala/collection/Map;;
const #331 = NameAndType	#328:#330;//  groupBy:(Lscala/collection/TraversableLike;Lscala/Function1;)Lscala/collection/Map;
const #332 = Method	#29.#331;	//  scala/collection/TraversableLike$class.groupBy:(Lscala/collection/TraversableLike;Lscala/Function1;)Lscala/collection/Map;
const #333 = Asciz	f;
const #334 = Asciz	partition;
const #335 = Asciz	(Lscala/Function1;)Lscala/Tuple2;;
const #336 = Asciz	(Lscala/collection/TraversableLike;Lscala/Function1;)Lscala/Tuple2;;
const #337 = NameAndType	#334:#336;//  partition:(Lscala/collection/TraversableLike;Lscala/Function1;)Lscala/Tuple2;
const #338 = Method	#29.#337;	//  scala/collection/TraversableLike$class.partition:(Lscala/collection/TraversableLike;Lscala/Function1;)Lscala/Tuple2;
const #339 = Asciz	partialMap;
const #340 = Asciz	(Lscala/PartialFunction;Lscala/collection/generic/CanBuildFrom;)Ljava/lang/Object;;
const #341 = Asciz	(Lscala/collection/TraversableLike;Lscala/PartialFunction;Lscala/collection/generic/CanBuildFrom;)Ljava/lang/Object;;
const #342 = NameAndType	#339:#341;//  partialMap:(Lscala/collection/TraversableLike;Lscala/PartialFunction;Lscala/collection/generic/CanBuildFrom;)Ljava/lang/Object;
const #343 = Method	#29.#342;	//  scala/collection/TraversableLike$class.partialMap:(Lscala/collection/TraversableLike;Lscala/PartialFunction;Lscala/collection/generic/CanBuildFrom;)Ljava/lang/Object;
const #344 = Asciz	pf;
const #345 = Asciz	Lscala/PartialFunction;;
const #346 = Asciz	bf;
const #347 = Asciz	Lscala/collection/generic/CanBuildFrom;;
const #348 = Asciz	filterNot;
const #349 = Asciz	(Lscala/Function1;)Ljava/lang/Object;;
const #350 = Asciz	(Lscala/collection/TraversableLike;Lscala/Function1;)Ljava/lang/Object;;
const #351 = NameAndType	#348:#350;//  filterNot:(Lscala/collection/TraversableLike;Lscala/Function1;)Ljava/lang/Object;
const #352 = Method	#29.#351;	//  scala/collection/TraversableLike$class.filterNot:(Lscala/collection/TraversableLike;Lscala/Function1;)Ljava/lang/Object;
const #353 = Asciz	filter;
const #354 = NameAndType	#353:#350;//  filter:(Lscala/collection/TraversableLike;Lscala/Function1;)Ljava/lang/Object;
const #355 = Method	#29.#354;	//  scala/collection/TraversableLike$class.filter:(Lscala/collection/TraversableLike;Lscala/Function1;)Ljava/lang/Object;
const #356 = Asciz	flatMap;
const #357 = Asciz	(Lscala/Function1;Lscala/collection/generic/CanBuildFrom;)Ljava/lang/Object;;
const #358 = Asciz	(Lscala/collection/TraversableLike;Lscala/Function1;Lscala/collection/generic/CanBuildFrom;)Ljava/lang/Object;;
const #359 = NameAndType	#356:#358;//  flatMap:(Lscala/collection/TraversableLike;Lscala/Function1;Lscala/collection/generic/CanBuildFrom;)Ljava/lang/Object;
const #360 = Method	#29.#359;	//  scala/collection/TraversableLike$class.flatMap:(Lscala/collection/TraversableLike;Lscala/Function1;Lscala/collection/generic/CanBuildFrom;)Ljava/lang/Object;
const #361 = Asciz	map;
const #362 = NameAndType	#361:#358;//  map:(Lscala/collection/TraversableLike;Lscala/Function1;Lscala/collection/generic/CanBuildFrom;)Ljava/lang/Object;
const #363 = Method	#29.#362;	//  scala/collection/TraversableLike$class.map:(Lscala/collection/TraversableLike;Lscala/Function1;Lscala/collection/generic/CanBuildFrom;)Ljava/lang/Object;
const #364 = Asciz	$plus$plus;
const #365 = Asciz	(Lscala/collection/Iterator;Lscala/collection/generic/CanBuildFrom;)Ljava/lang/Object;;
const #366 = Asciz	(Lscala/collection/TraversableLike;Lscala/collection/Iterator;Lscala/collection/generic/CanBuildFrom;)Ljava/lang/Object;;
const #367 = NameAndType	#364:#366;//  $plus$plus:(Lscala/collection/TraversableLike;Lscala/collection/Iterator;Lscala/collection/generic/CanBuildFrom;)Ljava/lang/Object;
const #368 = Method	#29.#367;	//  scala/collection/TraversableLike$class.$plus$plus:(Lscala/collection/TraversableLike;Lscala/collection/Iterator;Lscala/collection/generic/CanBuildFrom;)Ljava/lang/Object;
const #369 = Asciz	that;
const #370 = Asciz	Lscala/collection/Iterator;;
const #371 = Asciz	(Lscala/collection/Traversable;Lscala/collection/generic/CanBuildFrom;)Ljava/lang/Object;;
const #372 = Asciz	(Lscala/collection/TraversableLike;Lscala/collection/Traversable;Lscala/collection/generic/CanBuildFrom;)Ljava/lang/Object;;
const #373 = NameAndType	#364:#372;//  $plus$plus:(Lscala/collection/TraversableLike;Lscala/collection/Traversable;Lscala/collection/generic/CanBuildFrom;)Ljava/lang/Object;
const #374 = Method	#29.#373;	//  scala/collection/TraversableLike$class.$plus$plus:(Lscala/collection/TraversableLike;Lscala/collection/Traversable;Lscala/collection/generic/CanBuildFrom;)Ljava/lang/Object;
const #375 = Asciz	Lscala/collection/Traversable;;
const #376 = Asciz	hasDefiniteSize;
const #377 = Asciz	()Z;
const #378 = Asciz	(Lscala/collection/TraversableLike;)Z;
const #379 = NameAndType	#376:#378;//  hasDefiniteSize:(Lscala/collection/TraversableLike;)Z
const #380 = Method	#29.#379;	//  scala/collection/TraversableLike$class.hasDefiniteSize:(Lscala/collection/TraversableLike;)Z
const #381 = Asciz	nonEmpty;
const #382 = NameAndType	#381:#378;//  nonEmpty:(Lscala/collection/TraversableLike;)Z
const #383 = Method	#29.#382;	//  scala/collection/TraversableLike$class.nonEmpty:(Lscala/collection/TraversableLike;)Z
const #384 = Asciz	(Lscala/collection/TraversableLike;)Ljava/lang/Object;;
const #385 = NameAndType	#132:#384;//  repr:(Lscala/collection/TraversableLike;)Ljava/lang/Object;
const #386 = Method	#29.#385;	//  scala/collection/TraversableLike$class.repr:(Lscala/collection/TraversableLike;)Ljava/lang/Object;
const #387 = Asciz	transpose;
const #388 = Asciz	(Lscala/Function1;)Lscala/collection/Traversable;;
const #389 = Asciz	(Lscala/collection/generic/GenericTraversableTemplate;Lscala/Function1;)Lscala/collection/Traversable;;
const #390 = NameAndType	#387:#389;//  transpose:(Lscala/collection/generic/GenericTraversableTemplate;Lscala/Function1;)Lscala/collection/Traversable;
const #391 = Method	#35.#390;	//  scala/collection/generic/GenericTraversableTemplate$class.transpose:(Lscala/collection/generic/GenericTraversableTemplate;Lscala/Function1;)Lscala/collection/Traversable;
const #392 = Asciz	asTraversable;
const #393 = Asciz	flatten;
const #394 = NameAndType	#393:#389;//  flatten:(Lscala/collection/generic/GenericTraversableTemplate;Lscala/Function1;)Lscala/collection/Traversable;
const #395 = Method	#35.#394;	//  scala/collection/generic/GenericTraversableTemplate$class.flatten:(Lscala/collection/generic/GenericTraversableTemplate;Lscala/Function1;)Lscala/collection/Traversable;
const #396 = Asciz	unzip;
const #397 = Asciz	(Lscala/collection/generic/GenericTraversableTemplate;Lscala/Function1;)Lscala/Tuple2;;
const #398 = NameAndType	#396:#397;//  unzip:(Lscala/collection/generic/GenericTraversableTemplate;Lscala/Function1;)Lscala/Tuple2;
const #399 = Method	#35.#398;	//  scala/collection/generic/GenericTraversableTemplate$class.unzip:(Lscala/collection/generic/GenericTraversableTemplate;Lscala/Function1;)Lscala/Tuple2;
const #400 = Asciz	asPair;
const #401 = Asciz	genericBuilder;
const #402 = Asciz	(Lscala/collection/generic/GenericTraversableTemplate;)Lscala/collection/mutable/Builder;;
const #403 = NameAndType	#401:#402;//  genericBuilder:(Lscala/collection/generic/GenericTraversableTemplate;)Lscala/collection/mutable/Builder;
const #404 = Method	#35.#403;	//  scala/collection/generic/GenericTraversableTemplate$class.genericBuilder:(Lscala/collection/generic/GenericTraversableTemplate;)Lscala/collection/mutable/Builder;
const #405 = Asciz	firstOption;
const #406 = Asciz	(Lscala/collection/IterableLike;)Lscala/Option;;
const #407 = NameAndType	#405:#406;//  firstOption:(Lscala/collection/IterableLike;)Lscala/Option;
const #408 = Method	#50.#407;	//  scala/collection/IterableLike$class.firstOption:(Lscala/collection/IterableLike;)Lscala/Option;
const #409 = Asciz	first;
const #410 = Asciz	(Lscala/collection/IterableLike;)Ljava/lang/Object;;
const #411 = NameAndType	#409:#410;//  first:(Lscala/collection/IterableLike;)Ljava/lang/Object;
const #412 = Method	#50.#411;	//  scala/collection/IterableLike$class.first:(Lscala/collection/IterableLike;)Ljava/lang/Object;
const #413 = Asciz	canEqual;
const #414 = Asciz	(Lscala/collection/IterableLike;Ljava/lang/Object;)Z;
const #415 = NameAndType	#413:#414;//  canEqual:(Lscala/collection/IterableLike;Ljava/lang/Object;)Z
const #416 = Method	#50.#415;	//  scala/collection/IterableLike$class.canEqual:(Lscala/collection/IterableLike;Ljava/lang/Object;)Z
const #417 = Asciz	toStream;
const #418 = Asciz	()Lscala/collection/immutable/Stream;;
const #419 = Asciz	(Lscala/collection/IterableLike;)Lscala/collection/immutable/Stream;;
const #420 = NameAndType	#417:#419;//  toStream:(Lscala/collection/IterableLike;)Lscala/collection/immutable/Stream;
const #421 = Method	#50.#420;	//  scala/collection/IterableLike$class.toStream:(Lscala/collection/IterableLike;)Lscala/collection/immutable/Stream;
const #422 = Asciz	zipAll;
const #423 = Asciz	(Lscala/collection/Iterable;Ljava/lang/Object;Ljava/lang/Object;Lscala/collection/generic/CanBuildFrom;)Ljava/lang/Object;;
const #424 = Asciz	(Lscala/collection/IterableLike;Lscala/collection/Iterable;Ljava/lang/Object;Ljava/lang/Object;Lscala/collection/generic/CanBuildFrom;)Ljava/lang/Object;;
const #425 = NameAndType	#422:#424;//  zipAll:(Lscala/collection/IterableLike;Lscala/collection/Iterable;Ljava/lang/Object;Ljava/lang/Object;Lscala/collection/generic/CanBuildFrom;)Ljava/lang/Object;
const #426 = Method	#50.#425;	//  scala/collection/IterableLike$class.zipAll:(Lscala/collection/IterableLike;Lscala/collection/Iterable;Ljava/lang/Object;Ljava/lang/Object;Lscala/collection/generic/CanBuildFrom;)Ljava/lang/Object;
const #427 = Asciz	Lscala/collection/Iterable;;
const #428 = Asciz	thisElem;
const #429 = Asciz	thatElem;
const #430 = Asciz	toIterable;
const #431 = Asciz	(Lscala/collection/IterableLike;)Lscala/collection/Iterable;;
const #432 = NameAndType	#430:#431;//  toIterable:(Lscala/collection/IterableLike;)Lscala/collection/Iterable;
const #433 = Method	#50.#432;	//  scala/collection/IterableLike$class.toIterable:(Lscala/collection/IterableLike;)Lscala/collection/Iterable;
const #434 = Asciz	elements;
const #435 = Asciz	()Lscala/collection/Iterator;;
const #436 = Asciz	(Lscala/collection/IterableLike;)Lscala/collection/Iterator;;
const #437 = NameAndType	#434:#436;//  elements:(Lscala/collection/IterableLike;)Lscala/collection/Iterator;
const #438 = Method	#50.#437;	//  scala/collection/IterableLike$class.elements:(Lscala/collection/IterableLike;)Lscala/collection/Iterator;
const #439 = Asciz	compose;
const #440 = Asciz	(Lscala/Function1;Lscala/Function1;)Lscala/Function1;;
const #441 = NameAndType	#439:#440;//  compose:(Lscala/Function1;Lscala/Function1;)Lscala/Function1;
const #442 = Method	#65.#441;	//  scala/Function1$class.compose:(Lscala/Function1;Lscala/Function1;)Lscala/Function1;
const #443 = Asciz	lift;
const #444 = Asciz	()Lscala/Function1;;
const #445 = Asciz	(Lscala/PartialFunction;)Lscala/Function1;;
const #446 = NameAndType	#443:#445;//  lift:(Lscala/PartialFunction;)Lscala/Function1;
const #447 = Method	#70.#446;	//  scala/PartialFunction$class.lift:(Lscala/PartialFunction;)Lscala/Function1;
const #448 = Asciz	(Lscala/PartialFunction;Lscala/Function1;)Lscala/PartialFunction;;
const #449 = NameAndType	#166:#448;//  andThen:(Lscala/PartialFunction;Lscala/Function1;)Lscala/PartialFunction;
const #450 = Method	#70.#449;	//  scala/PartialFunction$class.andThen:(Lscala/PartialFunction;Lscala/Function1;)Lscala/PartialFunction;
const #451 = Asciz	k;
const #452 = Asciz	orElse;
const #453 = Asciz	(Lscala/PartialFunction;)Lscala/PartialFunction;;
const #454 = Asciz	(Lscala/PartialFunction;Lscala/PartialFunction;)Lscala/PartialFunction;;
const #455 = NameAndType	#452:#454;//  orElse:(Lscala/PartialFunction;Lscala/PartialFunction;)Lscala/PartialFunction;
const #456 = Method	#70.#455;	//  scala/PartialFunction$class.orElse:(Lscala/PartialFunction;Lscala/PartialFunction;)Lscala/PartialFunction;
const #457 = Asciz	projection;
const #458 = Asciz	(Lscala/collection/SeqLike;)Ljava/lang/Object;;
const #459 = NameAndType	#457:#458;//  projection:(Lscala/collection/SeqLike;)Ljava/lang/Object;
const #460 = Method	#75.#459;	//  scala/collection/SeqLike$class.projection:(Lscala/collection/SeqLike;)Ljava/lang/Object;
const #461 = Asciz	containsSlice;
const #462 = Asciz	(Lscala/collection/Seq;)Z;
const #463 = Asciz	(Lscala/collection/SeqLike;Lscala/collection/Seq;)Z;
const #464 = NameAndType	#461:#463;//  containsSlice:(Lscala/collection/SeqLike;Lscala/collection/Seq;)Z
const #465 = Method	#75.#464;	//  scala/collection/SeqLike$class.containsSlice:(Lscala/collection/SeqLike;Lscala/collection/Seq;)Z
const #466 = Asciz	Lscala/collection/Seq;;
const #467 = Asciz	equalsWith;
const #468 = Asciz	(Lscala/collection/Seq;Lscala/Function2;)Z;
const #469 = Asciz	(Lscala/collection/SeqLike;Lscala/collection/Seq;Lscala/Function2;)Z;
const #470 = NameAndType	#467:#469;//  equalsWith:(Lscala/collection/SeqLike;Lscala/collection/Seq;Lscala/Function2;)Z
const #471 = Method	#75.#470;	//  scala/collection/SeqLike$class.equalsWith:(Lscala/collection/SeqLike;Lscala/collection/Seq;Lscala/Function2;)Z
const #472 = Asciz	findLastIndexOf;
const #473 = Asciz	(Lscala/collection/SeqLike;Lscala/Function1;)I;
const #474 = NameAndType	#472:#473;//  findLastIndexOf:(Lscala/collection/SeqLike;Lscala/Function1;)I
const #475 = Method	#75.#474;	//  scala/collection/SeqLike$class.findLastIndexOf:(Lscala/collection/SeqLike;Lscala/Function1;)I
const #476 = Asciz	toString;
const #477 = Asciz	(Lscala/collection/SeqLike;)Ljava/lang/String;;
const #478 = NameAndType	#476:#477;//  toString:(Lscala/collection/SeqLike;)Ljava/lang/String;
const #479 = Method	#75.#478;	//  scala/collection/SeqLike$class.toString:(Lscala/collection/SeqLike;)Ljava/lang/String;
const #480 = Asciz	equals;
const #481 = Asciz	(Lscala/collection/SeqLike;Ljava/lang/Object;)Z;
const #482 = NameAndType	#480:#481;//  equals:(Lscala/collection/SeqLike;Ljava/lang/Object;)Z
const #483 = Method	#75.#482;	//  scala/collection/SeqLike$class.equals:(Lscala/collection/SeqLike;Ljava/lang/Object;)Z
const #484 = Asciz	hashCode;
const #485 = Asciz	(Lscala/collection/SeqLike;)I;
const #486 = NameAndType	#484:#485;//  hashCode:(Lscala/collection/SeqLike;)I
const #487 = Method	#75.#486;	//  scala/collection/SeqLike$class.hashCode:(Lscala/collection/SeqLike;)I
const #488 = Asciz	indices;
const #489 = Asciz	()Lscala/collection/immutable/Range;;
const #490 = Asciz	(Lscala/collection/SeqLike;)Lscala/collection/immutable/Range;;
const #491 = NameAndType	#488:#490;//  indices:(Lscala/collection/SeqLike;)Lscala/collection/immutable/Range;
const #492 = Method	#75.#491;	//  scala/collection/SeqLike$class.indices:(Lscala/collection/SeqLike;)Lscala/collection/immutable/Range;
const #493 = Asciz	toSeq;
const #494 = Asciz	(Lscala/collection/SeqLike;)Lscala/collection/Seq;;
const #495 = NameAndType	#493:#494;//  toSeq:(Lscala/collection/SeqLike;)Lscala/collection/Seq;
const #496 = Method	#75.#495;	//  scala/collection/SeqLike$class.toSeq:(Lscala/collection/SeqLike;)Lscala/collection/Seq;
const #497 = Asciz	sortBy;
const #498 = Asciz	(Lscala/Function1;Lscala/math/Ordering;)Ljava/lang/Object;;
const #499 = Asciz	(Lscala/collection/SeqLike;Lscala/Function1;Lscala/math/Ordering;)Ljava/lang/Object;;
const #500 = NameAndType	#497:#499;//  sortBy:(Lscala/collection/SeqLike;Lscala/Function1;Lscala/math/Ordering;)Ljava/lang/Object;
const #501 = Method	#75.#500;	//  scala/collection/SeqLike$class.sortBy:(Lscala/collection/SeqLike;Lscala/Function1;Lscala/math/Ordering;)Ljava/lang/Object;
const #502 = Asciz	ord;
const #503 = Asciz	sortWith;
const #504 = Asciz	(Lscala/collection/SeqLike;Lscala/math/Ordering;)Ljava/lang/Object;;
const #505 = NameAndType	#503:#504;//  sortWith:(Lscala/collection/SeqLike;Lscala/math/Ordering;)Ljava/lang/Object;
const #506 = Method	#75.#505;	//  scala/collection/SeqLike$class.sortWith:(Lscala/collection/SeqLike;Lscala/math/Ordering;)Ljava/lang/Object;
const #507 = Asciz	(Lscala/Function2;)Ljava/lang/Object;;
const #508 = Asciz	(Lscala/collection/SeqLike;Lscala/Function2;)Ljava/lang/Object;;
const #509 = NameAndType	#503:#508;//  sortWith:(Lscala/collection/SeqLike;Lscala/Function2;)Ljava/lang/Object;
const #510 = Method	#75.#509;	//  scala/collection/SeqLike$class.sortWith:(Lscala/collection/SeqLike;Lscala/Function2;)Ljava/lang/Object;
const #511 = Asciz	lt;
const #512 = Asciz	padTo;
const #513 = Asciz	(ILjava/lang/Object;Lscala/collection/generic/CanBuildFrom;)Ljava/lang/Object;;
const #514 = Asciz	(Lscala/collection/SeqLike;ILjava/lang/Object;Lscala/collection/generic/CanBuildFrom;)Ljava/lang/Object;;
const #515 = NameAndType	#512:#514;//  padTo:(Lscala/collection/SeqLike;ILjava/lang/Object;Lscala/collection/generic/CanBuildFrom;)Ljava/lang/Object;
const #516 = Method	#75.#515;	//  scala/collection/SeqLike$class.padTo:(Lscala/collection/SeqLike;ILjava/lang/Object;Lscala/collection/generic/CanBuildFrom;)Ljava/lang/Object;
const #517 = Asciz	len;
const #518 = Asciz	elem;
const #519 = Asciz	$colon$plus;
const #520 = Asciz	(Ljava/lang/Object;Lscala/collection/generic/CanBuildFrom;)Ljava/lang/Object;;
const #521 = Asciz	(Lscala/collection/SeqLike;Ljava/lang/Object;Lscala/collection/generic/CanBuildFrom;)Ljava/lang/Object;;
const #522 = NameAndType	#519:#521;//  $colon$plus:(Lscala/collection/SeqLike;Ljava/lang/Object;Lscala/collection/generic/CanBuildFrom;)Ljava/lang/Object;
const #523 = Method	#75.#522;	//  scala/collection/SeqLike$class.$colon$plus:(Lscala/collection/SeqLike;Ljava/lang/Object;Lscala/collection/generic/CanBuildFrom;)Ljava/lang/Object;
const #524 = Asciz	$plus$colon;
const #525 = NameAndType	#524:#521;//  $plus$colon:(Lscala/collection/SeqLike;Ljava/lang/Object;Lscala/collection/generic/CanBuildFrom;)Ljava/lang/Object;
const #526 = Method	#75.#525;	//  scala/collection/SeqLike$class.$plus$colon:(Lscala/collection/SeqLike;Ljava/lang/Object;Lscala/collection/generic/CanBuildFrom;)Ljava/lang/Object;
const #527 = Asciz	updated;
const #528 = NameAndType	#527:#514;//  updated:(Lscala/collection/SeqLike;ILjava/lang/Object;Lscala/collection/generic/CanBuildFrom;)Ljava/lang/Object;
const #529 = Method	#75.#528;	//  scala/collection/SeqLike$class.updated:(Lscala/collection/SeqLike;ILjava/lang/Object;Lscala/collection/generic/CanBuildFrom;)Ljava/lang/Object;
const #530 = Asciz	index;
const #531 = Asciz	patch;
const #532 = Asciz	(ILscala/collection/Seq;ILscala/collection/generic/CanBuildFrom;)Ljava/lang/Object;;
const #533 = Asciz	(Lscala/collection/SeqLike;ILscala/collection/Seq;ILscala/collection/generic/CanBuildFrom;)Ljava/lang/Object;;
const #534 = NameAndType	#531:#533;//  patch:(Lscala/collection/SeqLike;ILscala/collection/Seq;ILscala/collection/generic/CanBuildFrom;)Ljava/lang/Object;
const #535 = Method	#75.#534;	//  scala/collection/SeqLike$class.patch:(Lscala/collection/SeqLike;ILscala/collection/Seq;ILscala/collection/generic/CanBuildFrom;)Ljava/lang/Object;
const #536 = Asciz	replaced;
const #537 = Asciz	removeDuplicates;
const #538 = NameAndType	#537:#458;//  removeDuplicates:(Lscala/collection/SeqLike;)Ljava/lang/Object;
const #539 = Method	#75.#538;	//  scala/collection/SeqLike$class.removeDuplicates:(Lscala/collection/SeqLike;)Ljava/lang/Object;
const #540 = Asciz	intersect;
const #541 = Asciz	(Lscala/collection/Seq;)Ljava/lang/Object;;
const #542 = Asciz	(Lscala/collection/SeqLike;Lscala/collection/Seq;)Ljava/lang/Object;;
const #543 = NameAndType	#540:#542;//  intersect:(Lscala/collection/SeqLike;Lscala/collection/Seq;)Ljava/lang/Object;
const #544 = Method	#75.#543;	//  scala/collection/SeqLike$class.intersect:(Lscala/collection/SeqLike;Lscala/collection/Seq;)Ljava/lang/Object;
const #545 = Asciz	diff;
const #546 = NameAndType	#545:#542;//  diff:(Lscala/collection/SeqLike;Lscala/collection/Seq;)Ljava/lang/Object;
const #547 = Method	#75.#546;	//  scala/collection/SeqLike$class.diff:(Lscala/collection/SeqLike;Lscala/collection/Seq;)Ljava/lang/Object;
const #548 = Asciz	union;
const #549 = Asciz	(Lscala/collection/Seq;Lscala/collection/generic/CanBuildFrom;)Ljava/lang/Object;;
const #550 = Asciz	(Lscala/collection/SeqLike;Lscala/collection/Seq;Lscala/collection/generic/CanBuildFrom;)Ljava/lang/Object;;
const #551 = NameAndType	#548:#550;//  union:(Lscala/collection/SeqLike;Lscala/collection/Seq;Lscala/collection/generic/CanBuildFrom;)Ljava/lang/Object;
const #552 = Method	#75.#551;	//  scala/collection/SeqLike$class.union:(Lscala/collection/SeqLike;Lscala/collection/Seq;Lscala/collection/generic/CanBuildFrom;)Ljava/lang/Object;
const #553 = Asciz	contains;
const #554 = NameAndType	#553:#481;//  contains:(Lscala/collection/SeqLike;Ljava/lang/Object;)Z
const #555 = Method	#75.#554;	//  scala/collection/SeqLike$class.contains:(Lscala/collection/SeqLike;Ljava/lang/Object;)Z
const #556 = Asciz	lastIndexOfSlice;
const #557 = Asciz	(Lscala/collection/Seq;I)I;
const #558 = Asciz	(Lscala/collection/SeqLike;Lscala/collection/Seq;I)I;
const #559 = NameAndType	#556:#558;//  lastIndexOfSlice:(Lscala/collection/SeqLike;Lscala/collection/Seq;I)I
const #560 = Method	#75.#559;	//  scala/collection/SeqLike$class.lastIndexOfSlice:(Lscala/collection/SeqLike;Lscala/collection/Seq;I)I
const #561 = Asciz	(Lscala/collection/Seq;)I;
const #562 = Asciz	(Lscala/collection/SeqLike;Lscala/collection/Seq;)I;
const #563 = NameAndType	#556:#562;//  lastIndexOfSlice:(Lscala/collection/SeqLike;Lscala/collection/Seq;)I
const #564 = Method	#75.#563;	//  scala/collection/SeqLike$class.lastIndexOfSlice:(Lscala/collection/SeqLike;Lscala/collection/Seq;)I
const #565 = Asciz	indexOfSlice;
const #566 = NameAndType	#565:#558;//  indexOfSlice:(Lscala/collection/SeqLike;Lscala/collection/Seq;I)I
const #567 = Method	#75.#566;	//  scala/collection/SeqLike$class.indexOfSlice:(Lscala/collection/SeqLike;Lscala/collection/Seq;I)I
const #568 = NameAndType	#565:#562;//  indexOfSlice:(Lscala/collection/SeqLike;Lscala/collection/Seq;)I
const #569 = Method	#75.#568;	//  scala/collection/SeqLike$class.indexOfSlice:(Lscala/collection/SeqLike;Lscala/collection/Seq;)I
const #570 = Asciz	startsWith;
const #571 = NameAndType	#570:#463;//  startsWith:(Lscala/collection/SeqLike;Lscala/collection/Seq;)Z
const #572 = Method	#75.#571;	//  scala/collection/SeqLike$class.startsWith:(Lscala/collection/SeqLike;Lscala/collection/Seq;)Z
const #573 = Asciz	reversedElements;
const #574 = Asciz	(Lscala/collection/SeqLike;)Lscala/collection/Iterator;;
const #575 = NameAndType	#573:#574;//  reversedElements:(Lscala/collection/SeqLike;)Lscala/collection/Iterator;
const #576 = Method	#75.#575;	//  scala/collection/SeqLike$class.reversedElements:(Lscala/collection/SeqLike;)Lscala/collection/Iterator;
const #577 = Asciz	reverseMap;
const #578 = Asciz	(Lscala/collection/SeqLike;Lscala/Function1;Lscala/collection/generic/CanBuildFrom;)Ljava/lang/Object;;
const #579 = NameAndType	#577:#578;//  reverseMap:(Lscala/collection/SeqLike;Lscala/Function1;Lscala/collection/generic/CanBuildFrom;)Ljava/lang/Object;
const #580 = Method	#75.#579;	//  scala/collection/SeqLike$class.reverseMap:(Lscala/collection/SeqLike;Lscala/Function1;Lscala/collection/generic/CanBuildFrom;)Ljava/lang/Object;
const #581 = Asciz	lastIndexWhere;
const #582 = NameAndType	#581:#473;//  lastIndexWhere:(Lscala/collection/SeqLike;Lscala/Function1;)I
const #583 = Method	#75.#582;	//  scala/collection/SeqLike$class.lastIndexWhere:(Lscala/collection/SeqLike;Lscala/Function1;)I
const #584 = Asciz	lastIndexOf;
const #585 = Asciz	(Ljava/lang/Object;I)I;
const #586 = Asciz	(Lscala/collection/SeqLike;Ljava/lang/Object;I)I;
const #587 = NameAndType	#584:#586;//  lastIndexOf:(Lscala/collection/SeqLike;Ljava/lang/Object;I)I
const #588 = Method	#75.#587;	//  scala/collection/SeqLike$class.lastIndexOf:(Lscala/collection/SeqLike;Ljava/lang/Object;I)I
const #589 = Asciz	(Lscala/collection/SeqLike;Ljava/lang/Object;)I;
const #590 = NameAndType	#584:#589;//  lastIndexOf:(Lscala/collection/SeqLike;Ljava/lang/Object;)I
const #591 = Method	#75.#590;	//  scala/collection/SeqLike$class.lastIndexOf:(Lscala/collection/SeqLike;Ljava/lang/Object;)I
const #592 = Asciz	indexOf;
const #593 = NameAndType	#592:#586;//  indexOf:(Lscala/collection/SeqLike;Ljava/lang/Object;I)I
const #594 = Method	#75.#593;	//  scala/collection/SeqLike$class.indexOf:(Lscala/collection/SeqLike;Ljava/lang/Object;I)I
const #595 = NameAndType	#592:#589;//  indexOf:(Lscala/collection/SeqLike;Ljava/lang/Object;)I
const #596 = Method	#75.#595;	//  scala/collection/SeqLike$class.indexOf:(Lscala/collection/SeqLike;Ljava/lang/Object;)I
const #597 = Asciz	findIndexOf;
const #598 = NameAndType	#597:#473;//  findIndexOf:(Lscala/collection/SeqLike;Lscala/Function1;)I
const #599 = Method	#75.#598;	//  scala/collection/SeqLike$class.findIndexOf:(Lscala/collection/SeqLike;Lscala/Function1;)I
const #600 = Asciz	indexWhere;
const #601 = NameAndType	#600:#473;//  indexWhere:(Lscala/collection/SeqLike;Lscala/Function1;)I
const #602 = Method	#75.#601;	//  scala/collection/SeqLike$class.indexWhere:(Lscala/collection/SeqLike;Lscala/Function1;)I
const #603 = Asciz	prefixLength;
const #604 = NameAndType	#603:#473;//  prefixLength:(Lscala/collection/SeqLike;Lscala/Function1;)I
const #605 = Method	#75.#604;	//  scala/collection/SeqLike$class.prefixLength:(Lscala/collection/SeqLike;Lscala/Function1;)I
const #606 = Asciz	(Lscala/collection/SeqLike;I)Z;
const #607 = NameAndType	#152:#606;//  isDefinedAt:(Lscala/collection/SeqLike;I)Z
const #608 = Method	#75.#607;	//  scala/collection/SeqLike$class.isDefinedAt:(Lscala/collection/SeqLike;I)Z
const #609 = Asciz	idx;
const #610 = Asciz	size;
const #611 = NameAndType	#610:#485;//  size:(Lscala/collection/SeqLike;)I
const #612 = Method	#75.#611;	//  scala/collection/SeqLike$class.size:(Lscala/collection/SeqLike;)I
const #613 = Asciz	endsWith;
const #614 = Asciz	(Lscala/collection/IndexedSeqLike;Lscala/collection/Seq;)Z;
const #615 = NameAndType	#613:#614;//  endsWith:(Lscala/collection/IndexedSeqLike;Lscala/collection/Seq;)Z
const #616 = Method	#90.#615;	//  scala/collection/IndexedSeqLike$class.endsWith:(Lscala/collection/IndexedSeqLike;Lscala/collection/Seq;)Z
const #617 = Asciz	(Lscala/collection/Seq;I)Z;
const #618 = Asciz	(Lscala/collection/IndexedSeqLike;Lscala/collection/Seq;I)Z;
const #619 = NameAndType	#570:#618;//  startsWith:(Lscala/collection/IndexedSeqLike;Lscala/collection/Seq;I)Z
const #620 = Method	#90.#619;	//  scala/collection/IndexedSeqLike$class.startsWith:(Lscala/collection/IndexedSeqLike;Lscala/collection/Seq;I)Z
const #621 = Asciz	offset;
const #622 = Asciz	reverseIterator;
const #623 = Asciz	(Lscala/collection/IndexedSeqLike;)Lscala/collection/Iterator;;
const #624 = NameAndType	#622:#623;//  reverseIterator:(Lscala/collection/IndexedSeqLike;)Lscala/collection/Iterator;
const #625 = Method	#90.#624;	//  scala/collection/IndexedSeqLike$class.reverseIterator:(Lscala/collection/IndexedSeqLike;)Lscala/collection/Iterator;
const #626 = Asciz	reverse;
const #627 = Asciz	(Lscala/collection/IndexedSeqLike;)Ljava/lang/Object;;
const #628 = NameAndType	#626:#627;//  reverse:(Lscala/collection/IndexedSeqLike;)Ljava/lang/Object;
const #629 = Method	#90.#628;	//  scala/collection/IndexedSeqLike$class.reverse:(Lscala/collection/IndexedSeqLike;)Ljava/lang/Object;
const #630 = Asciz	(Lscala/Function1;I)I;
const #631 = Asciz	(Lscala/collection/IndexedSeqLike;Lscala/Function1;I)I;
const #632 = NameAndType	#581:#631;//  lastIndexWhere:(Lscala/collection/IndexedSeqLike;Lscala/Function1;I)I
const #633 = Method	#90.#632;	//  scala/collection/IndexedSeqLike$class.lastIndexWhere:(Lscala/collection/IndexedSeqLike;Lscala/Function1;I)I
const #634 = NameAndType	#600:#631;//  indexWhere:(Lscala/collection/IndexedSeqLike;Lscala/Function1;I)I
const #635 = Method	#90.#634;	//  scala/collection/IndexedSeqLike$class.indexWhere:(Lscala/collection/IndexedSeqLike;Lscala/Function1;I)I
const #636 = Asciz	segmentLength;
const #637 = NameAndType	#636:#631;//  segmentLength:(Lscala/collection/IndexedSeqLike;Lscala/Function1;I)I
const #638 = Method	#90.#637;	//  scala/collection/IndexedSeqLike$class.segmentLength:(Lscala/collection/IndexedSeqLike;Lscala/Function1;I)I
const #639 = Asciz	lengthCompare;
const #640 = Asciz	(I)I;
const #641 = Asciz	(Lscala/collection/IndexedSeqLike;I)I;
const #642 = NameAndType	#639:#641;//  lengthCompare:(Lscala/collection/IndexedSeqLike;I)I
const #643 = Method	#90.#642;	//  scala/collection/IndexedSeqLike$class.lengthCompare:(Lscala/collection/IndexedSeqLike;I)I
const #644 = Asciz	(Ljava/lang/Object;II)V;
const #645 = Asciz	(Lscala/collection/IndexedSeqLike;Ljava/lang/Object;II)V;
const #646 = NameAndType	#263:#645;//  copyToArray:(Lscala/collection/IndexedSeqLike;Ljava/lang/Object;II)V
const #647 = Method	#90.#646;	//  scala/collection/IndexedSeqLike$class.copyToArray:(Lscala/collection/IndexedSeqLike;Ljava/lang/Object;II)V
const #648 = Asciz	sameElements;
const #649 = Asciz	(Lscala/collection/Iterable;)Z;
const #650 = Asciz	(Lscala/collection/IndexedSeqLike;Lscala/collection/Iterable;)Z;
const #651 = NameAndType	#648:#650;//  sameElements:(Lscala/collection/IndexedSeqLike;Lscala/collection/Iterable;)Z
const #652 = Method	#90.#651;	//  scala/collection/IndexedSeqLike$class.sameElements:(Lscala/collection/IndexedSeqLike;Lscala/collection/Iterable;)Z
const #653 = Asciz	span;
const #654 = Asciz	(Lscala/collection/IndexedSeqLike;Lscala/Function1;)Lscala/Tuple2;;
const #655 = NameAndType	#653:#654;//  span:(Lscala/collection/IndexedSeqLike;Lscala/Function1;)Lscala/Tuple2;
const #656 = Method	#90.#655;	//  scala/collection/IndexedSeqLike$class.span:(Lscala/collection/IndexedSeqLike;Lscala/Function1;)Lscala/Tuple2;
const #657 = Asciz	dropWhile;
const #658 = Asciz	(Lscala/collection/IndexedSeqLike;Lscala/Function1;)Ljava/lang/Object;;
const #659 = NameAndType	#657:#658;//  dropWhile:(Lscala/collection/IndexedSeqLike;Lscala/Function1;)Ljava/lang/Object;
const #660 = Method	#90.#659;	//  scala/collection/IndexedSeqLike$class.dropWhile:(Lscala/collection/IndexedSeqLike;Lscala/Function1;)Ljava/lang/Object;
const #661 = Asciz	takeWhile;
const #662 = NameAndType	#661:#658;//  takeWhile:(Lscala/collection/IndexedSeqLike;Lscala/Function1;)Ljava/lang/Object;
const #663 = Method	#90.#662;	//  scala/collection/IndexedSeqLike$class.takeWhile:(Lscala/collection/IndexedSeqLike;Lscala/Function1;)Ljava/lang/Object;
const #664 = Asciz	splitAt;
const #665 = Asciz	(I)Lscala/Tuple2;;
const #666 = Asciz	(Lscala/collection/IndexedSeqLike;I)Lscala/Tuple2;;
const #667 = NameAndType	#664:#666;//  splitAt:(Lscala/collection/IndexedSeqLike;I)Lscala/Tuple2;
const #668 = Method	#90.#667;	//  scala/collection/IndexedSeqLike$class.splitAt:(Lscala/collection/IndexedSeqLike;I)Lscala/Tuple2;
const #669 = Asciz	n;
const #670 = Asciz	dropRight;
const #671 = Asciz	(Lscala/collection/IndexedSeqLike;I)Ljava/lang/Object;;
const #672 = NameAndType	#670:#671;//  dropRight:(Lscala/collection/IndexedSeqLike;I)Ljava/lang/Object;
const #673 = Method	#90.#672;	//  scala/collection/IndexedSeqLike$class.dropRight:(Lscala/collection/IndexedSeqLike;I)Ljava/lang/Object;
const #674 = Asciz	takeRight;
const #675 = NameAndType	#674:#671;//  takeRight:(Lscala/collection/IndexedSeqLike;I)Ljava/lang/Object;
const #676 = Method	#90.#675;	//  scala/collection/IndexedSeqLike$class.takeRight:(Lscala/collection/IndexedSeqLike;I)Ljava/lang/Object;
const #677 = Asciz	drop;
const #678 = NameAndType	#677:#671;//  drop:(Lscala/collection/IndexedSeqLike;I)Ljava/lang/Object;
const #679 = Method	#90.#678;	//  scala/collection/IndexedSeqLike$class.drop:(Lscala/collection/IndexedSeqLike;I)Ljava/lang/Object;
const #680 = Asciz	take;
const #681 = NameAndType	#680:#671;//  take:(Lscala/collection/IndexedSeqLike;I)Ljava/lang/Object;
const #682 = Method	#90.#681;	//  scala/collection/IndexedSeqLike$class.take:(Lscala/collection/IndexedSeqLike;I)Ljava/lang/Object;
const #683 = Asciz	init;
const #684 = NameAndType	#683:#627;//  init:(Lscala/collection/IndexedSeqLike;)Ljava/lang/Object;
const #685 = Method	#90.#684;	//  scala/collection/IndexedSeqLike$class.init:(Lscala/collection/IndexedSeqLike;)Ljava/lang/Object;
const #686 = Asciz	last;
const #687 = NameAndType	#686:#627;//  last:(Lscala/collection/IndexedSeqLike;)Ljava/lang/Object;
const #688 = Method	#90.#687;	//  scala/collection/IndexedSeqLike$class.last:(Lscala/collection/IndexedSeqLike;)Ljava/lang/Object;
const #689 = Asciz	tail;
const #690 = NameAndType	#689:#627;//  tail:(Lscala/collection/IndexedSeqLike;)Ljava/lang/Object;
const #691 = Method	#90.#690;	//  scala/collection/IndexedSeqLike$class.tail:(Lscala/collection/IndexedSeqLike;)Ljava/lang/Object;
const #692 = Asciz	head;
const #693 = NameAndType	#692:#627;//  head:(Lscala/collection/IndexedSeqLike;)Ljava/lang/Object;
const #694 = Method	#90.#693;	//  scala/collection/IndexedSeqLike$class.head:(Lscala/collection/IndexedSeqLike;)Ljava/lang/Object;
const #695 = Asciz	slice;
const #696 = Asciz	(II)Ljava/lang/Object;;
const #697 = Asciz	(Lscala/collection/IndexedSeqLike;II)Ljava/lang/Object;;
const #698 = NameAndType	#695:#697;//  slice:(Lscala/collection/IndexedSeqLike;II)Ljava/lang/Object;
const #699 = Method	#90.#698;	//  scala/collection/IndexedSeqLike$class.slice:(Lscala/collection/IndexedSeqLike;II)Ljava/lang/Object;
const #700 = Asciz	zipWithIndex;
const #701 = Asciz	(Lscala/collection/generic/CanBuildFrom;)Ljava/lang/Object;;
const #702 = Asciz	(Lscala/collection/IndexedSeqLike;Lscala/collection/generic/CanBuildFrom;)Ljava/lang/Object;;
const #703 = NameAndType	#700:#702;//  zipWithIndex:(Lscala/collection/IndexedSeqLike;Lscala/collection/generic/CanBuildFrom;)Ljava/lang/Object;
const #704 = Method	#90.#703;	//  scala/collection/IndexedSeqLike$class.zipWithIndex:(Lscala/collection/IndexedSeqLike;Lscala/collection/generic/CanBuildFrom;)Ljava/lang/Object;
const #705 = Asciz	zip;
const #706 = Asciz	(Lscala/collection/Iterable;Lscala/collection/generic/CanBuildFrom;)Ljava/lang/Object;;
const #707 = Asciz	(Lscala/collection/IndexedSeqLike;Lscala/collection/Iterable;Lscala/collection/generic/CanBuildFrom;)Ljava/lang/Object;;
const #708 = NameAndType	#705:#707;//  zip:(Lscala/collection/IndexedSeqLike;Lscala/collection/Iterable;Lscala/collection/generic/CanBuildFrom;)Ljava/lang/Object;
const #709 = Method	#90.#708;	//  scala/collection/IndexedSeqLike$class.zip:(Lscala/collection/IndexedSeqLike;Lscala/collection/Iterable;Lscala/collection/generic/CanBuildFrom;)Ljava/lang/Object;
const #710 = Asciz	reduceRight;
const #711 = Asciz	(Lscala/collection/IndexedSeqLike;Lscala/Function2;)Ljava/lang/Object;;
const #712 = NameAndType	#710:#711;//  reduceRight:(Lscala/collection/IndexedSeqLike;Lscala/Function2;)Ljava/lang/Object;
const #713 = Method	#90.#712;	//  scala/collection/IndexedSeqLike$class.reduceRight:(Lscala/collection/IndexedSeqLike;Lscala/Function2;)Ljava/lang/Object;
const #714 = Asciz	reduceLeft;
const #715 = NameAndType	#714:#711;//  reduceLeft:(Lscala/collection/IndexedSeqLike;Lscala/Function2;)Ljava/lang/Object;
const #716 = Method	#90.#715;	//  scala/collection/IndexedSeqLike$class.reduceLeft:(Lscala/collection/IndexedSeqLike;Lscala/Function2;)Ljava/lang/Object;
const #717 = Asciz	foldRight;
const #718 = Asciz	(Lscala/collection/IndexedSeqLike;Ljava/lang/Object;Lscala/Function2;)Ljava/lang/Object;;
const #719 = NameAndType	#717:#718;//  foldRight:(Lscala/collection/IndexedSeqLike;Ljava/lang/Object;Lscala/Function2;)Ljava/lang/Object;
const #720 = Method	#90.#719;	//  scala/collection/IndexedSeqLike$class.foldRight:(Lscala/collection/IndexedSeqLike;Ljava/lang/Object;Lscala/Function2;)Ljava/lang/Object;
const #721 = Asciz	foldLeft;
const #722 = NameAndType	#721:#718;//  foldLeft:(Lscala/collection/IndexedSeqLike;Ljava/lang/Object;Lscala/Function2;)Ljava/lang/Object;
const #723 = Method	#90.#722;	//  scala/collection/IndexedSeqLike$class.foldLeft:(Lscala/collection/IndexedSeqLike;Ljava/lang/Object;Lscala/Function2;)Ljava/lang/Object;
const #724 = Asciz	find;
const #725 = Asciz	(Lscala/Function1;)Lscala/Option;;
const #726 = Asciz	(Lscala/collection/IndexedSeqLike;Lscala/Function1;)Lscala/Option;;
const #727 = NameAndType	#724:#726;//  find:(Lscala/collection/IndexedSeqLike;Lscala/Function1;)Lscala/Option;
const #728 = Method	#90.#727;	//  scala/collection/IndexedSeqLike$class.find:(Lscala/collection/IndexedSeqLike;Lscala/Function1;)Lscala/Option;
const #729 = Asciz	exists;
const #730 = Asciz	(Lscala/Function1;)Z;
const #731 = Asciz	(Lscala/collection/IndexedSeqLike;Lscala/Function1;)Z;
const #732 = NameAndType	#729:#731;//  exists:(Lscala/collection/IndexedSeqLike;Lscala/Function1;)Z
const #733 = Method	#90.#732;	//  scala/collection/IndexedSeqLike$class.exists:(Lscala/collection/IndexedSeqLike;Lscala/Function1;)Z
const #734 = Asciz	forall;
const #735 = NameAndType	#734:#731;//  forall:(Lscala/collection/IndexedSeqLike;Lscala/Function1;)Z
const #736 = Method	#90.#735;	//  scala/collection/IndexedSeqLike$class.forall:(Lscala/collection/IndexedSeqLike;Lscala/Function1;)Z
const #737 = Asciz	foreach;
const #738 = Asciz	(Lscala/collection/IndexedSeqLike;Lscala/Function1;)V;
const #739 = NameAndType	#737:#738;//  foreach:(Lscala/collection/IndexedSeqLike;Lscala/Function1;)V
const #740 = Method	#90.#739;	//  scala/collection/IndexedSeqLike$class.foreach:(Lscala/collection/IndexedSeqLike;Lscala/Function1;)V
const #741 = Asciz	isEmpty;
const #742 = Asciz	(Lscala/collection/IndexedSeqLike;)Z;
const #743 = NameAndType	#741:#742;//  isEmpty:(Lscala/collection/IndexedSeqLike;)Z
const #744 = Method	#90.#743;	//  scala/collection/IndexedSeqLike$class.isEmpty:(Lscala/collection/IndexedSeqLike;)Z
const #745 = Asciz	iterator;
const #746 = NameAndType	#745:#623;//  iterator:(Lscala/collection/IndexedSeqLike;)Lscala/collection/Iterator;
const #747 = Method	#90.#746;	//  scala/collection/IndexedSeqLike$class.iterator:(Lscala/collection/IndexedSeqLike;)Lscala/collection/Iterator;
const #748 = Asciz	scala$collection$IndexedSeqLike$$super$endsWith;
const #749 = NameAndType	#613:#463;//  endsWith:(Lscala/collection/SeqLike;Lscala/collection/Seq;)Z
const #750 = Method	#75.#749;	//  scala/collection/SeqLike$class.endsWith:(Lscala/collection/SeqLike;Lscala/collection/Seq;)Z
const #751 = Asciz	scala$collection$IndexedSeqLike$$super$sameElements;
const #752 = Asciz	(Lscala/collection/IterableLike;Lscala/collection/Iterable;)Z;
const #753 = NameAndType	#648:#752;//  sameElements:(Lscala/collection/IterableLike;Lscala/collection/Iterable;)Z
const #754 = Method	#50.#753;	//  scala/collection/IterableLike$class.sameElements:(Lscala/collection/IterableLike;Lscala/collection/Iterable;)Z
const #755 = Asciz	scala$collection$IndexedSeqLike$$super$init;
const #756 = NameAndType	#683:#384;//  init:(Lscala/collection/TraversableLike;)Ljava/lang/Object;
[...]
   line 25: 0

  LocalVariableTable: 
   Start  Length  Slot  Name   Signature
   0      8      0    this       Lscala/collection/mutable/WrappedArray;
   0      8      1    xs       Ljava/lang/Object;
   0      8      2    start       I
   0      8      3    len       I


public boolean sameElements(scala.collection.Iterable);
  Code:
   Stack=2, Locals=2, Args_size=2
   0:	aload_0
   1:	aload_1
   2:	invokestatic	#652; //Method scala/collection/IndexedSeqLike$class.sameElements:(Lscala/collection/IndexedSeqLike;Lscala/collection/Iterable;)Z
   5:	ireturn
  LineNumberTable: 
   line 25: 0

  LocalVariableTable: 
   Start  Length  Slot  Name   Signature
   0      6      0    this       Lscala/collection/mutable/WrappedArray;
   0      6      1    that       Lscala/collection/Iterable;


public scala.Tuple2 span(scala.Function1);
  Code:
   Stack=2, Locals=2, Args_size=2
   0:	aload_0
   1:	aload_1
   2:	invokestatic	#656; //Method scala/collection/IndexedSeqLike$class.span:(Lscala/collection/IndexedSeqLike;Lscala/Function1;)Lscala/Tuple2;
   5:	areturn
  LineNumberTable: 
   line 25: 0

  LocalVariableTable: 
   Start  Length  Slot  Name   Signature
   0      6      0    this       Lscala/collection/mutable/WrappedArray;
   0      6      1    p       Lscala/Function1;


public java.lang.Object dropWhile(scala.Function1);
  Code:
   Stack=2, Locals=2, Args_size=2
   0:	aload_0
   1:	aload_1
   2:	invokestatic	#660; //Method scala/collection/IndexedSeqLike$class.dropWhile:(Lscala/collection/IndexedSeqLike;Lscala/Function1;)Ljava/lang/Object;
   5:	areturn
  LineNumberTable: 
   line 25: 0

  LocalVariableTable: 
   Start  Length  Slot  Name   Signature
   0      6      0    this       Lscala/collection/mutable/WrappedArray;
   0      6      1    p       Lscala/Function1;


public java.lang.Object takeWhile(scala.Function1);
  Code:
   Stack=2, Locals=2, Args_size=2
   0:	aload_0
   1:	aload_1
   2:	invokestatic	#663; //Method scala/collection/IndexedSeqLike$class.takeWhile:(Lscala/collection/IndexedSeqLike;Lscala/Function1;)Ljava/lang/Object;
   5:	areturn
  LineNumberTable: 
   line 25: 0

  LocalVariableTable: 
   Start  Length  Slot  Name   Signature
   0      6      0    this       Lscala/collection/mutable/WrappedArray;
   0      6      1    p       Lscala/Function1;


public scala.Tuple2 splitAt(int);
  Code:
   Stack=2, Locals=2, Args_size=2
   0:	aload_0
   1:	iload_1
   2:	invokestatic	#668; //Method scala/collection/IndexedSeqLike$class.splitAt:(Lscala/collection/IndexedSeqLike;I)Lscala/Tuple2;
   5:	areturn
  LineNumberTable: 
   line 25: 0

  LocalVariableTable: 
   Start  Length  Slot  Name   Signature
   0      6      0    this       Lscala/collection/mutable/WrappedArray;
   0      6      1    n       I


public java.lang.Object dropRight(int);
  Code:
   Stack=2, Locals=2, Args_size=2
   0:	aload_0
   1:	iload_1
   2:	invokestatic	#673; //Method scala/collection/IndexedSeqLike$class.dropRight:(Lscala/collection/IndexedSeqLike;I)Ljava/lang/Object;
   5:	areturn
  LineNumberTable: 
   line 25: 0

  LocalVariableTable: 
   Start  Length  Slot  Name   Signature
   0      6      0    this       Lscala/collection/mutable/WrappedArray;
   0      6      1    n       I


public java.lang.Object takeRight(int);
  Code:
   Stack=2, Locals=2, Args_size=2
   0:	aload_0
   1:	iload_1
   2:	invokestatic	#676; //Method scala/collection/IndexedSeqLike$class.takeRight:(Lscala/collection/IndexedSeqLike;I)Ljava/lang/Object;
   5:	areturn
  LineNumberTable: 
   line 25: 0

  LocalVariableTable: 
   Start  Length  Slot  Name   Signature
   0      6      0    this       Lscala/collection/mutable/WrappedArray;
   0      6      1    n       I


public java.lang.Object drop(int);
  Code:
   Stack=2, Locals=2, Args_size=2
   0:	aload_0
   1:	iload_1
   2:	invokestatic	#679; //Method scala/collection/IndexedSeqLike$class.drop:(Lscala/collection/IndexedSeqLike;I)Ljava/lang/Object;
   5:	areturn
  LineNumberTable: 
   line 25: 0

  LocalVariableTable: 
   Start  Length  Slot  Name   Signature
   0      6      0    this       Lscala/collection/mutable/WrappedArray;
   0      6      1    n       I


public java.lang.Object take(int);
  Code:
   Stack=2, Locals=2, Args_size=2
   0:	aload_0
   1:	iload_1
   2:	invokestatic	#682; //Method scala/collection/IndexedSeqLike$class.take:(Lscala/collection/IndexedSeqLike;I)Ljava/lang/Object;
   5:	areturn
  LineNumberTable: 
   line 25: 0

  LocalVariableTable: 
   Start  Length  Slot  Name   Signature
   0      6      0    this       Lscala/collection/mutable/WrappedArray;
   0      6      1    n       I


public java.lang.Object init();
  Code:
   Stack=1, Locals=1, Args_size=1
   0:	aload_0
   1:	invokestatic	#685; //Method scala/collection/IndexedSeqLike$class.init:(Lscala/collection/IndexedSeqLike;)Ljava/lang/Object;
   4:	areturn
  LineNumberTable: 
   line 25: 0


public java.lang.Object last();
  Code:
   Stack=1, Locals=1, Args_size=1
   0:	aload_0
   1:	invokestatic	#688; //Method scala/collection/IndexedSeqLike$class.last:(Lscala/collection/IndexedSeqLike;)Ljava/lang/Object;
   4:	areturn
  LineNumberTable: 
   line 25: 0


public java.lang.Object tail();
  Code:
   Stack=1, Locals=1, Args_size=1
   0:	aload_0
   1:	invokestatic	#691; //Method scala/collection/IndexedSeqLike$class.tail:(Lscala/collection/IndexedSeqLike;)Ljava/lang/Object;
   4:	areturn
  LineNumberTable: 
   line 25: 0


public java.lang.Object head();
  Code:
   Stack=1, Locals=1, Args_size=1
   0:	aload_0
   1:	invokestatic	#694; //Method scala/collection/IndexedSeqLike$class.head:(Lscala/collection/IndexedSeqLike;)Ljava/lang/Object;
   4:	areturn
  LineNumberTable: 
   line 25: 0


public java.lang.Object slice(int, int);
  Code:
   Stack=3, Locals=3, Args_size=3
   0:	aload_0
   1:	iload_1
   2:	iload_2
   3:	invokestatic	#699; //Method scala/collection/IndexedSeqLike$class.slice:(Lscala/collection/IndexedSeqLike;II)Ljava/lang/Object;
   6:	areturn
  LineNumberTable: 
   line 25: 0

  LocalVariableTable: 
   Start  Length  Slot  Name   Signature
   0      7      0    this       Lscala/collection/mutable/WrappedArray;
   0      7      1    from       I
   0      7      2    until       I


public java.lang.Object zipWithIndex(scala.collection.generic.CanBuildFrom);
  Code:
   Stack=2, Locals=2, Args_size=2
   0:	aload_0
   1:	aload_1
   2:	invokestatic	#704; //Method scala/collection/IndexedSeqLike$class.zipWithIndex:(Lscala/collection/IndexedSeqLike;Lscala/collection/generic/CanBuildFrom;)Ljava/lang/Object;
   5:	areturn
  LineNumberTable: 
   line 25: 0

  LocalVariableTable: 
   Start  Length  Slot  Name   Signature
   0      6      0    this       Lscala/collection/mutable/WrappedArray;
   0      6      1    bf       Lscala/collection/generic/CanBuildFrom;


public java.lang.Object zip(scala.collection.Iterable, scala.collection.generic.CanBuildFrom);
  Code:
   Stack=3, Locals=3, Args_size=3
   0:	aload_0
   1:	aload_1
   2:	aload_2
   3:	invokestatic	#709; //Method scala/collection/IndexedSeqLike$class.zip:(Lscala/collection/IndexedSeqLike;Lscala/collection/Iterable;Lscala/collection/generic/CanBuildFrom;)Ljava/lang/Object;
   6:	areturn
  LineNumberTable: 
   line 25: 0

  LocalVariableTable: 
   Start  Length  Slot  Name   Signature
   0      7      0    this       Lscala/collection/mutable/WrappedArray;
   0      7      1    that       Lscala/collection/Iterable;
   0      7      2    bf       Lscala/collection/generic/CanBuildFrom;


public java.lang.Object reduceRight(scala.Function2);
  Code:
   Stack=2, Locals=2, Args_size=2
   0:	aload_0
   1:	aload_1
   2:	invokestatic	#713; //Method scala/collection/IndexedSeqLike$class.reduceRight:(Lscala/collection/IndexedSeqLike;Lscala/Function2;)Ljava/lang/Object;
   5:	areturn
  LineNumberTable: 
   line 25: 0

  LocalVariableTable: 
   Start  Length  Slot  Name   Signature
   0      6      0    this       Lscala/collection/mutable/WrappedArray;
   0      6      1    op       Lscala/Function2;


public java.lang.Object reduceLeft(scala.Function2);
  Code:
   Stack=2, Locals=2, Args_size=2
   0:	aload_0
   1:	aload_1
   2:	invokestatic	#716; //Method scala/collection/IndexedSeqLike$class.reduceLeft:(Lscala/collection/IndexedSeqLike;Lscala/Function2;)Ljava/lang/Object;
   5:	areturn
  LineNumberTable: 
   line 25: 0

  LocalVariableTable: 
   Start  Length  Slot  Name   Signature
   0      6      0    this       Lscala/collection/mutable/WrappedArray;
   0      6      1    op       Lscala/Function2;


public java.lang.Object foldRight(java.lang.Object, scala.Function2);
  Code:
   Stack=3, Locals=3, Args_size=3
   0:	aload_0
   1:	aload_1
   2:	aload_2
   3:	invokestatic	#720; //Method scala/collection/IndexedSeqLike$class.foldRight:(Lscala/collection/IndexedSeqLike;Ljava/lang/Object;Lscala/Function2;)Ljava/lang/Object;
   6:	areturn
  LineNumberTable: 
   line 25: 0

  LocalVariableTable: 
   Start  Length  Slot  Name   Signature
   0      7      0    this       Lscala/collection/mutable/WrappedArray;
   0      7      1    z       Ljava/lang/Object;
   0      7      2    op       Lscala/Function2;


public java.lang.Object foldLeft(java.lang.Object, scala.Function2);
  Code:
   Stack=3, Locals=3, Args_size=3
   0:	aload_0
   1:	aload_1
   2:	aload_2
   3:	invokestatic	#723; //Method scala/collection/IndexedSeqLike$class.foldLeft:(Lscala/collection/IndexedSeqLike;Ljava/lang/Object;Lscala/Function2;)Ljava/lang/Object;
   6:	areturn
  LineNumberTable: 
   line 25: 0

  LocalVariableTable: 
   Start  Length  Slot  Name   Signature
   0      7      0    this       Lscala/collection/mutable/WrappedArray;
   0      7      1    z       Ljava/lang/Object;
   0      7      2    op       Lscala/Function2;


public scala.Option find(scala.Function1);
  Code:
   Stack=2, Locals=2, Args_size=2
   0:	aload_0
   1:	aload_1
   2:	invokestatic	#728; //Method scala/collection/IndexedSeqLike$class.find:(Lscala/collection/IndexedSeqLike;Lscala/Function1;)Lscala/Option;
   5:	areturn
  LineNumberTable: 
   line 25: 0

  LocalVariableTable: 
   Start  Length  Slot  Name   Signature
   0      6      0    this       Lscala/collection/mutable/WrappedArray;
   0      6      1    p       Lscala/Function1;


public boolean exists(scala.Function1);
  Code:
   Stack=2, Locals=2, Args_size=2
   0:	aload_0
   1:	aload_1
   2:	invokestatic	#733; //Method scala/collection/IndexedSeqLike$class.exists:(Lscala/collection/IndexedSeqLike;Lscala/Function1;)Z
   5:	ireturn
  LineNumberTable: 
   line 25: 0

  LocalVariableTable: 
   Start  Length  Slot  Name   Signature
   0      6      0    this       Lscala/collection/mutable/WrappedArray;
   0      6      1    p       Lscala/Function1;


public boolean forall(scala.Function1);
  Code:
   Stack=2, Locals=2, Args_size=2
   0:	aload_0
   1:	aload_1
   2:	invokestatic	#736; //Method scala/collection/IndexedSeqLike$class.forall:(Lscala/collection/IndexedSeqLike;Lscala/Function1;)Z
   5:	ireturn
  LineNumberTable: 
   line 25: 0

  LocalVariableTable: 
   Start  Length  Slot  Name   Signature
   0      6      0    this       Lscala/collection/mutable/WrappedArray;
   0      6      1    p       Lscala/Function1;


public void foreach(scala.Function1);
  Code:
   Stack=2, Locals=2, Args_size=2
   0:	aload_0
   1:	aload_1
   2:	invokestatic	#740; //Method scala/collection/IndexedSeqLike$class.foreach:(Lscala/collection/IndexedSeqLike;Lscala/Function1;)V
   5:	return
  LineNumberTable: 
   line 25: 0

  LocalVariableTable: 
   Start  Length  Slot  Name   Signature
   0      6      0    this       Lscala/collection/mutable/WrappedArray;
   0      6      1    f       Lscala/Function1;


public boolean isEmpty();
  Code:
   Stack=1, Locals=1, Args_size=1
   0:	aload_0
   1:	invokestatic	#744; //Method scala/collection/IndexedSeqLike$class.isEmpty:(Lscala/collection/IndexedSeqLike;)Z
   4:	ireturn
  LineNumberTable: 
   line 25: 0


public scala.collection.Iterator iterator();
  Code:
   Stack=1, Locals=1, Args_size=1
   0:	aload_0
   1:	invokestatic	#747; //Method scala/collection/IndexedSeqLike$class.iterator:(Lscala/collection/IndexedSeqLike;)Lscala/collection/Iterator;
   4:	areturn
  LineNumberTable: 
   line 25: 0


public final boolean scala$collection$IndexedSeqLike$$super$endsWith(scala.collection.Seq);
  Code:
   Stack=2, Locals=2, Args_size=2
   0:	aload_0
   1:	aload_1
   2:	invokestatic	#750; //Method scala/collection/SeqLike$class.endsWith:(Lscala/collection/SeqLike;Lscala/collection/Seq;)Z
   5:	ireturn
  LineNumberTable: 
   line 25: 0

  LocalVariableTable: 
   Start  Length  Slot  Name   Signature
   0      6      0    this       Lscala/collection/mutable/WrappedArray;
   0      6      1    that       Lscala/collection/Seq;


public final boolean scala$collection$IndexedSeqLike$$super$sameElements(scala.collection.Iterable);
  Code:
   Stack=2, Locals=2, Args_size=2
   0:	aload_0
   1:	aload_1
   2:	invokestatic	#754; //Method scala/collection/IterableLike$class.sameElements:(Lscala/collection/IterableLike;Lscala/collection/Iterable;)Z
   5:	ireturn
  LineNumberTable: 
   line 25: 0

  LocalVariableTable: 
   Start  Length  Slot  Name   Signature
   0      6      0    this       Lscala/collection/mutable/WrappedArray;
   0      6      1    that       Lscala/collection/Iterable;


public final java.lang.Object scala$collection$IndexedSeqLike$$super$init();
  Code:
   Stack=1, Locals=1, Args_size=1
   0:	aload_0
   1:	invokestatic	#757; //Method scala/collection/TraversableLike$class.init:(Lscala/collection/TraversableLike;)Ljava/lang/Object;
   4:	areturn
  LineNumberTable: 
   line 25: 0


public final java.lang.Object scala$collection$IndexedSeqLike$$super$last();
  Code:
   Stack=1, Locals=1, Args_size=1
   0:	aload_0
   1:	invokestatic	#760; //Method scala/collection/TraversableLike$class.last:(Lscala/collection/TraversableLike;)Ljava/lang/Object;
   4:	areturn
  LineNumberTable: 
   line 25: 0


public final java.lang.Object scala$collection$IndexedSeqLike$$super$tail();
  Code:
   Stack=1, Locals=1, Args_size=1
   0:	aload_0
   1:	invokestatic	#763; //Method scala/collection/TraversableLike$class.tail:(Lscala/collection/TraversableLike;)Ljava/lang/Object;
   4:	areturn
  LineNumberTable: 
   line 25: 0


public final java.lang.Object scala$collection$IndexedSeqLike$$super$head();
  Code:
   Stack=1, Locals=1, Args_size=1
   0:	aload_0
   1:	invokestatic	#766; //Method scala/collection/IterableLike$class.head:(Lscala/collection/IterableLike;)Ljava/lang/Object;
   4:	areturn
  LineNumberTable: 
   line 25: 0


public final java.lang.Object scala$collection$IndexedSeqLike$$super$zip(scala.collection.Iterable, scala.collection.generic.CanBuildFrom);
  Code:
   Stack=3, Locals=3, Args_size=3
   0:	aload_0
   1:	aload_1
   2:	aload_2
   3:	invokestatic	#770; //Method scala/collection/IterableLike$class.zip:(Lscala/collection/IterableLike;Lscala/collection/Iterable;Lscala/collection/generic/CanBuildFrom;)Ljava/lang/Object;
   6:	areturn
  LineNumberTable: 
   line 25: 0

  LocalVariableTable: 
   Start  Length  Slot  Name   Signature
   0      7      0    this       Lscala/collection/mutable/WrappedArray;
   0      7      1    that       Lscala/collection/Iterable;
   0      7      2    bf       Lscala/collection/generic/CanBuildFrom;


public final java.lang.Object scala$collection$IndexedSeqLike$$super$reduceRight(scala.Function2);
  Code:
   Stack=2, Locals=2, Args_size=2
   0:	aload_0
   1:	aload_1
   2:	invokestatic	#774; //Method scala/collection/IterableLike$class.reduceRight:(Lscala/collection/IterableLike;Lscala/Function2;)Ljava/lang/Object;
   5:	areturn
  LineNumberTable: 
   line 25: 0

  LocalVariableTable: 
   Start  Length  Slot  Name   Signature
   0      6      0    this       Lscala/collection/mutable/WrappedArray;
   0      6      1    op       Lscala/Function2;


public final java.lang.Object scala$collection$IndexedSeqLike$$super$reduceLeft(scala.Function2);
  Code:
   Stack=2, Locals=2, Args_size=2
   0:	aload_0
   1:	aload_1
   2:	invokestatic	#778; //Method scala/collection/TraversableLike$class.reduceLeft:(Lscala/collection/TraversableLike;Lscala/Function2;)Ljava/lang/Object;
   5:	areturn
  LineNumberTable: 
   line 25: 0

  LocalVariableTable: 
   Start  Length  Slot  Name   Signature
   0      6      0    this       Lscala/collection/mutable/WrappedArray;
   0      6      1    op       Lscala/Function2;


public scala.collection.mutable.IndexedSeqView view(int, int);
  Code:
   Stack=3, Locals=3, Args_size=3
   0:	aload_0
   1:	iload_1
   2:	iload_2
   3:	invokestatic	#781; //Method scala/collection/mutable/IndexedSeqLike$class.view:(Lscala/collection/mutable/IndexedSeqLike;II)Lscala/collection/mutable/IndexedSeqView;
   6:	areturn
  LineNumberTable: 
   line 25: 0

  LocalVariableTable: 
   Start  Length  Slot  Name   Signature
   0      7      0    this       Lscala/collection/mutable/WrappedArray;
   0      7      1    from       I
   0      7      2    until       I


public java.lang.Object view();
  Code:
   Stack=1, Locals=1, Args_size=1
   0:	aload_0
   1:	invokestatic	#784; //Method scala/collection/mutable/IndexedSeqLike$class.view:(Lscala/collection/mutable/IndexedSeqLike;)Ljava/lang/Object;
   4:	areturn
  LineNumberTable: 
   line 25: 0


public scala.collection.generic.GenericCompanion companion();
  Code:
   Stack=1, Locals=1, Args_size=1
   0:	aload_0
   1:	invokestatic	#789; //Method scala/collection/mutable/IndexedSeq$class.companion:(Lscala/collection/mutable/IndexedSeq;)Lscala/collection/generic/GenericCompanion;
   4:	areturn
  LineNumberTable: 
   line 25: 0


public final boolean deepEquals(java.lang.Object);
  Code:
   Stack=2, Locals=2, Args_size=2
   0:	aload_0
   1:	aload_1
   2:	invokestatic	#793; //Method scala/collection/mutable/ArrayLike$class.deepEquals:(Lscala/collection/mutable/ArrayLike;Ljava/lang/Object;)Z
   5:	ireturn
  LineNumberTable: 
   line 25: 0

  LocalVariableTable: 
   Start  Length  Slot  Name   Signature
   0      6      0    this       Lscala/collection/mutable/WrappedArray;
   0      6      1    that       Ljava/lang/Object;


public final java.lang.String deepMkString(java.lang.String);
  Code:
   Stack=2, Locals=2, Args_size=2
   0:	aload_0
   1:	aload_1
   2:	invokestatic	#797; //Method scala/collection/mutable/ArrayLike$class.deepMkString:(Lscala/collection/mutable/ArrayLike;Ljava/lang/String;)Ljava/lang/String;
   5:	areturn
  LineNumberTable: 
   line 25: 0

  LocalVariableTable: 
   Start  Length  Slot  Name   Signature
   0      6      0    this       Lscala/collection/mutable/WrappedArray;
   0      6      1    sep       Ljava/lang/String;


public final java.lang.String deepMkString(java.lang.String, java.lang.String, java.lang.String);
  Code:
   Stack=4, Locals=4, Args_size=4
   0:	aload_0
   1:	aload_1
   2:	aload_2
   3:	aload_3
   4:	invokestatic	#800; //Method scala/collection/mutable/ArrayLike$class.deepMkString:(Lscala/collection/mutable/ArrayLike;Ljava/lang/String;Ljava/lang/String;Ljava/lang/String;)Ljava/lang/String;
   7:	areturn
  LineNumberTable: 
   line 25: 0

  LocalVariableTable: 
   Start  Length  Slot  Name   Signature
   0      8      0    this       Lscala/collection/mutable/WrappedArray;
   0      8      1    start       Ljava/lang/String;
   0      8      2    sep       Ljava/lang/String;
   0      8      3    end       Ljava/lang/String;


public final java.lang.String deepToString();
  Code:
   Stack=1, Locals=1, Args_size=1
   0:	aload_0
   1:	invokestatic	#804; //Method scala/collection/mutable/ArrayLike$class.deepToString:(Lscala/collection/mutable/ArrayLike;)Ljava/lang/String;
   4:	areturn
  LineNumberTable: 
   line 25: 0


public scala.collection.IndexedSeq deep();
  Code:
   Stack=1, Locals=1, Args_size=1
   0:	aload_0
   1:	invokestatic	#808; //Method scala/collection/mutable/ArrayLike$class.deep:(Lscala/collection/mutable/ArrayLike;)Lscala/collection/IndexedSeq;
   4:	areturn
  LineNumberTable: 
   line 25: 0


}

