Compiled from "WrappedArray.scala"
public abstract class scala.collection.mutable.WrappedArray extends java.lang.Object implements scala.collection.mutable.IndexedSeq,scala.collection.mutable.ArrayLike,scala.ScalaObject
  SourceFile: "WrappedArray.scala"
  Signature: length = 0x2
   03 24 
  ScalaSig: length = 0xE62
   05 00 FFFFFF83 7F 06 05 01 02 FFFFFF81 00 09 02 0C 57 72 61
   70 70 65 64 41 72 72 61 79 0A 02 03 04 01 07 6D
   75 74 61 62 6C 65 0A 02 05 06 01 0A 63 6F 6C 6C
   65 63 74 69 6F 6E 0A 01 07 01 05 73 63 61 6C 61
   03 00 15 02 0A 19 13 05 00 0B 13 23 27 10 02 0C
   11 0D 01 0D 0A 02 0E 0F 01 04 6C 61 6E 67 0A 01
   10 01 04 6A 61 76 61 09 02 12 0D 02 06 4F 62 6A
   65 63 74 10 03 14 15 17 0D 01 02 09 02 16 02 02
   0A 49 6E 64 65 78 65 64 53 65 71 10 02 18 19 0C
   00 04 08 1A 00 FFFFFF84 FFFFFF80 FFFFFF80 FFFFFFC2 00 1B 02 01 54 11 02
   1C 20 10 02 1D 1E 0D 01 06 09 02 1F 06 02 07 4E
   6F 74 68 69 6E 67 10 02 1D 21 09 02 22 06 02 03
   41 6E 79 10 04 14 24 17 26 09 02 25 02 02 09 41
   72 72 61 79 4C 69 6B 65 10 03 14 00 17 10 02 1D
   28 09 02 29 06 02 0B 53 63 61 6C 61 4F 62 6A 65
   63 74 08 05 2B 00 FFFFFF84 00 2C 01 06 3C 69 6E 69 74
   3E 14 01 26 08 06 2E 00 FFFFFFA0 FFFFFF84 28 2F 01 0E 74 68
   69 73 43 6F 6C 6C 65 63 74 69 6F 6E 15 01 26 08
   06 31 00 FFFFFFA0 FFFFFF84 28 32 01 0C 74 6F 43 6F 6C 6C 65
   63 74 69 6F 6E 14 02 26 33 08 05 34 30 FFFFFFC0 00 26
   01 04 72 65 70 72 08 05 36 00 FFFFFF86 00 37 01 0C 65
   6C 65 6D 4D 61 6E 69 66 65 73 74 15 01 38 10 03
   39 3C 17 0D 01 3A 0A 02 3B 06 01 07 72 65 66 6C
   65 63 74 09 02 3D 3A 02 0D 43 6C 61 73 73 4D 61
   6E 69 66 65 73 74 08 05 3F 00 FFFFFF86 00 40 01 06 6C
   65 6E 67 74 68 15 01 41 10 02 1D 42 09 02 43 06
   02 03 49 6E 74 08 05 45 00 FFFFFF86 00 46 01 05 61 70
   70 6C 79 14 02 17 47 08 05 48 44 FFFFFFC0 00 41 01 05
   69 6E 64 65 78 08 05 4A 00 FFFFFF86 00 4B 01 06 75 70
   64 61 74 65 14 03 4C 4F 50 10 02 1D 4D 09 02 4E
   06 02 04 55 6E 69 74 08 05 48 49 FFFFFFC0 00 41 08 05
   51 49 FFFFFFC0 00 17 01 04 65 6C 65 6D 08 05 53 00 FFFFFF86
   00 54 01 05 61 72 72 61 79 15 01 55 10 03 1D 56
   17 09 02 57 06 02 05 41 72 72 61 79 08 05 59 00
   FFFFFF84 20 5A 01 0C 73 74 72 69 6E 67 50 72 65 66 69
   78 15 01 5B 10 02 0C 5C 09 02 5D 0D 02 06 53 74
   72 69 6E 67 08 06 5F 00 FFFFFFA0 FFFFFF84 28 60 01 0A 6E 65
   77 42 75 69 6C 64 65 72 15 01 61 10 04 14 62 17
   26 09 02 63 02 02 07 42 75 69 6C 64 65 72 07 05
   65 02 FFFFFF88 02 66 01 0C 57 72 61 70 70 65 64 41 72
   72 61 79 10 02 14 67 06 08 01 02 FFFFFF84 FFFFFF80 FFFFFF80 FFFFFF88 02
   68 13 03 67 0B 27 08 05 2B 67 FFFFFF84 00 6A 14 01 66
   08 05 6C 67 FFFFFF84 00 6D 01 04 6D 61 6B 65 15 02 6E
   71 14 02 6F 72 10 03 14 00 70 10 02 18 71 04 08
   1A 6B FFFFFF84 FFFFFF80 FFFFFF80 FFFFFFC2 00 1B 08 05 73 6B FFFFFFC0 00 74 01
   01 78 10 02 1D 75 09 02 76 06 02 06 41 6E 79 52
   65 66 08 05 78 67 FFFFFF84 01 79 01 0C 63 61 6E 42 75
   69 6C 64 46 72 6F 6D 15 03 7A FFFFFF81 07 16 03 7B FFFFFF81
   09 10 08 7C 7F FFFFFF81 01 FFFFFF81 06 FFFFFF81 08 0D 01 7D 0A 02
   7E 04 01 07 67 65 6E 65 72 69 63 09 03 FFFFFF81 00 7D
   02 0C 43 61 6E 42 75 69 6C 64 46 72 6F 6D 30 04
   FFFFFF81 02 FFFFFF81 04 10 04 14 00 FFFFFF81 03 10 03 18 FFFFFF81 04 04
   09 FFFFFF81 05 77 FFFFFF84 FFFFFF80 FFFFFF80 FFFFFF82 00 1B 02 03 5F 24 31 10
   03 18 FFFFFF81 07 04 08 1A 77 FFFFFF84 FFFFFF80 FFFFFF80 FFFFFFC2 00 1B 10 04
   14 00 FFFFFF81 06 08 07 FFFFFF81 0A 77 FFFFFFC0 01 FFFFFF81 0B 01 01 6D
   10 04 39 3C FFFFFF81 06 08 06 5F 67 FFFFFF84 00 FFFFFF81 0D 15 04
   FFFFFF81 0E FFFFFF81 10 10 06 14 62 FFFFFF81 0F FFFFFF81 12 10 03 18 FFFFFF81
   10 04 0A FFFFFF81 11 FFFFFF81 0C FFFFFF84 FFFFFF80 FFFFFF80 FFFFFFC2 00 1B 02 01 41
   10 04 14 15 FFFFFF81 0F 06 06 FFFFFF81 14 67 02 FFFFFF81 15 02 05
   6F 66 52 65 66 15 04 FFFFFF81 16 FFFFFF81 19 13 05 FFFFFF81 13 FFFFFF81
   17 27 10 04 14 00 FFFFFF81 18 10 03 18 FFFFFF81 19 04 0A 1A
   FFFFFF81 13 FFFFFF84 FFFFFF80 FFFFFF80 FFFFFFC2 00 FFFFFF81 1A 11 02 1C 74 08 0A 53
   FFFFFF81 13 FFFFFF82 FFFFFFC2 FFFFFF80 FFFFFF84 00 FFFFFF81 1C 15 02 FFFFFF81 1D 10 04 1D
   56 FFFFFF81 18 08 0B FFFFFF81 1F FFFFFF81 13 FFFFFF82 FFFFFF80 FFFFFFA0 FFFFFF80 04 FFFFFF81 1D
   01 06 61 72 72 61 79 20 08 07 2B FFFFFF81 13 FFFFFF84 00 FFFFFF81
   21 14 04 FFFFFF81 22 FFFFFF81 24 10 06 FFFFFF81 23 FFFFFF81 13 FFFFFF81 18 0D
   01 67 08 07 53 FFFFFF81 20 FFFFFFC0 00 FFFFFF81 1D 08 0A 36 FFFFFF81 13
   FFFFFF88 FFFFFFC2 FFFFFF80 FFFFFF84 00 FFFFFF81 26 15 02 FFFFFF81 27 10 04 39 3C FFFFFF81
   18 08 0B FFFFFF81 29 FFFFFF81 13 FFFFFF88 FFFFFF80 FFFFFFA0 FFFFFFA0 04 FFFFFF81 27 01 0D
   65 6C 65 6D 4D 61 6E 69 66 65 73 74 20 08 06 3F
   FFFFFF81 13 FFFFFF84 00 40 08 07 45 FFFFFF81 13 FFFFFF84 00 FFFFFF81 2C 14 04
   FFFFFF81 18 FFFFFF81 2D 08 06 48 FFFFFF81 2B FFFFFFC0 00 41 08 07 4A FFFFFF81
   13 FFFFFF84 00 FFFFFF81 2F 14 05 4C FFFFFF81 30 FFFFFF81 31 08 06 48 FFFFFF81
   2E FFFFFFC0 00 41 08 07 51 FFFFFF81 2E FFFFFFC0 00 FFFFFF81 18 28 04 FFFFFF81
   13 FFFFFF81 33 10 03 1D FFFFFF81 34 09 03 FFFFFF81 35 06 02 0C 73
   65 72 69 61 6C 69 7A 61 62 6C 65 06 0A FFFFFF81 37 67
   FFFFFF84 FFFFFF80 FFFFFF80 FFFFFF80 02 FFFFFF81 38 02 06 6F 66 42 79 74 65 13
   05 FFFFFF81 36 FFFFFF81 39 27 10 04 14 00 FFFFFF81 3A 10 03 1D FFFFFF81
   3B 09 03 FFFFFF81 3C 06 02 04 42 79 74 65 08 0A 53 FFFFFF81
   36 FFFFFF82 FFFFFFC2 FFFFFF80 FFFFFF84 00 FFFFFF81 3E 15 02 FFFFFF81 3F 10 04 1D 56
   FFFFFF81 3A 08 0B FFFFFF81 1F FFFFFF81 36 FFFFFF82 FFFFFF80 FFFFFFA0 FFFFFF80 04 FFFFFF81 3F 08
   07 2B FFFFFF81 36 FFFFFF84 00 FFFFFF81 42 14 04 FFFFFF81 43 FFFFFF81 44 10 04
   FFFFFF81 23 FFFFFF81 36 08 07 53 FFFFFF81 41 FFFFFFC0 00 FFFFFF81 3F 08 07 36
   FFFFFF81 36 FFFFFF84 00 FFFFFF81 46 15 02 FFFFFF81 47 12 05 FFFFFF81 48 0B FFFFFF81
   4E 06 0A FFFFFF81 49 00 FFFFFF84 FFFFFF80 FFFFFF80 FFFFFF80 00 FFFFFF81 47 02 0C 3C
   72 65 66 69 6E 65 6D 65 6E 74 3E 09 04 FFFFFF81 4B FFFFFF81
   4C 01 05 42 79 74 65 20 0A 03 FFFFFF81 4D 3A 01 08 4D
   61 6E 69 66 65 73 74 10 05 39 FFFFFF81 4F FFFFFF81 3A 09 03
   FFFFFF81 50 3A 02 08 4D 61 6E 69 66 65 73 74 08 08 FFFFFF81
   52 FFFFFF81 48 FFFFFF84 00 FFFFFF81 53 01 07 65 72 61 73 75 72 65
   15 02 FFFFFF81 54 10 05 0C FFFFFF81 55 FFFFFF81 57 09 03 FFFFFF81 56 0D
   02 05 43 6C 61 73 73 10 03 0C FFFFFF81 58 09 03 FFFFFF81 3C
   0D 08 06 3F FFFFFF81 36 FFFFFF84 00 40 08 07 45 FFFFFF81 36 FFFFFF84 00
   FFFFFF81 5B 14 04 FFFFFF81 3A FFFFFF81 5C 08 06 48 FFFFFF81 5A FFFFFFC0 00 41
   08 07 4A FFFFFF81 36 FFFFFF84 00 FFFFFF81 5E 14 05 4C FFFFFF81 5F FFFFFF81 60
   08 06 48 FFFFFF81 5D FFFFFFC0 00 41 08 07 51 FFFFFF81 5D FFFFFFC0 00 FFFFFF81
   3A 28 04 FFFFFF81 36 FFFFFF81 33 06 0A FFFFFF81 63 67 FFFFFF84 FFFFFF80 FFFFFF80 FFFFFF80
   02 FFFFFF81 64 02 07 6F 66 53 68 6F 72 74 13 05 FFFFFF81 62
   FFFFFF81 65 27 10 04 14 00 FFFFFF81 66 10 03 1D FFFFFF81 67 09 03
   FFFFFF81 68 06 02 05 53 68 6F 72 74 08 0A 53 FFFFFF81 62 FFFFFF82
   FFFFFFC2 FFFFFF80 FFFFFF84 00 FFFFFF81 6A 15 02 FFFFFF81 6B 10 04 1D 56 FFFFFF81 66
   08 0B FFFFFF81 1F FFFFFF81 62 FFFFFF82 FFFFFF80 FFFFFFA0 FFFFFF80 04 FFFFFF81 6B 08 07 2B
   FFFFFF81 62 FFFFFF84 00 FFFFFF81 6E 14 04 FFFFFF81 6F FFFFFF81 70 10 04 FFFFFF81 23
   FFFFFF81 62 08 07 53 FFFFFF81 6D FFFFFFC0 00 FFFFFF81 6B 08 07 36 FFFFFF81 62
   FFFFFF84 00 FFFFFF81 72 15 02 FFFFFF81 73 12 05 FFFFFF81 74 0B FFFFFF81 77 06
   0A FFFFFF81 49 00 FFFFFF84 FFFFFF80 FFFFFF80 FFFFFF80 00 FFFFFF81 73 09 04 FFFFFF81 76 FFFFFF81
   4C 01 06 53 68 6F 72 74 20 10 05 39 FFFFFF81 4F FFFFFF81 66
   08 08 FFFFFF81 52 FFFFFF81 74 FFFFFF84 00 FFFFFF81 79 15 02 FFFFFF81 7A 10 05
   0C FFFFFF81 55 FFFFFF81 7B 10 03 0C FFFFFF81 7C 09 03 FFFFFF81 68 0D 08
   06 3F FFFFFF81 62 FFFFFF84 00 40 08 07 45 FFFFFF81 62 FFFFFF84 00 FFFFFF81 7F
   14 04 FFFFFF81 66 FFFFFF82 00 08 06 48 FFFFFF81 7E FFFFFFC0 00 41 08 07
   4A FFFFFF81 62 FFFFFF84 00 FFFFFF82 02 14 05 4C FFFFFF82 03 FFFFFF82 04 08 06
   48 FFFFFF82 01 FFFFFFC0 00 41 08 07 51 FFFFFF82 01 FFFFFFC0 00 FFFFFF81 66 28
   04 FFFFFF81 62 FFFFFF81 33 06 0A FFFFFF82 07 67 FFFFFF84 FFFFFF80 FFFFFF80 FFFFFF80 02 FFFFFF82
   08 02 06 6F 66 43 68 61 72 13 05 FFFFFF82 06 FFFFFF82 09 27
   10 04 14 00 FFFFFF82 0A 10 03 1D FFFFFF82 0B 09 03 FFFFFF82 0C 06
   02 04 43 68 61 72 08 0A 53 FFFFFF82 06 FFFFFF82 FFFFFFC2 FFFFFF80 FFFFFF84 00
   FFFFFF82 0E 15 02 FFFFFF82 0F 10 04 1D 56 FFFFFF82 0A 08 0B FFFFFF81 1F
   FFFFFF82 06 FFFFFF82 FFFFFF80 FFFFFFA0 FFFFFF80 04 FFFFFF82 0F 08 07 2B FFFFFF82 06 FFFFFF84 00
   FFFFFF82 12 14 04 FFFFFF82 13 FFFFFF82 14 10 04 FFFFFF81 23 FFFFFF82 06 08 07
   53 FFFFFF82 11 FFFFFFC0 00 FFFFFF82 0F 08 07 36 FFFFFF82 06 FFFFFF84 00 FFFFFF82 16
   15 02 FFFFFF82 17 12 05 FFFFFF82 18 0B FFFFFF82 1B 06 0A FFFFFF81 49 00
   FFFFFF84 FFFFFF80 FFFFFF80 FFFFFF80 00 FFFFFF82 17 09 04 FFFFFF82 1A FFFFFF81 4C 01 05 43
   68 61 72 20 10 05 39 FFFFFF81 4F FFFFFF82 0A 08 08 FFFFFF81 52 FFFFFF82
   18 FFFFFF84 00 FFFFFF82 1D 15 02 FFFFFF82 1E 10 05 0C FFFFFF81 55 FFFFFF82 1F
   10 03 0C FFFFFF82 20 09 03 FFFFFF82 21 0D 02 09 43 68 61 72
   61 63 74 65 72 08 06 3F FFFFFF82 06 FFFFFF84 00 40 08 07 45
   FFFFFF82 06 FFFFFF84 00 FFFFFF82 24 14 04 FFFFFF82 0A FFFFFF82 25 08 06 48 FFFFFF82
   23 FFFFFFC0 00 41 08 07 4A FFFFFF82 06 FFFFFF84 00 FFFFFF82 27 14 05 4C
   FFFFFF82 28 FFFFFF82 29 08 06 48 FFFFFF82 26 FFFFFFC0 00 41 08 07 51 FFFFFF82
   26 FFFFFFC0 00 FFFFFF82 0A 28 04 FFFFFF82 06 FFFFFF81 33 06 0A FFFFFF82 2C 67
   FFFFFF84 FFFFFF80 FFFFFF80 FFFFFF80 02 FFFFFF82 2D 02 05 6F 66 49 6E 74 13 05
   FFFFFF82 2B FFFFFF82 2E 27 10 03 14 00 41 08 0A 53 FFFFFF82 2B FFFFFF82
   FFFFFFC2 FFFFFF80 FFFFFF84 00 FFFFFF82 30 15 02 FFFFFF82 31 10 03 1D 56 41 08
   0B FFFFFF81 1F FFFFFF82 2B FFFFFF82 FFFFFF80 FFFFFFA0 FFFFFF80 04 FFFFFF82 31 08 07 2B FFFFFF82
   2B FFFFFF84 00 FFFFFF82 34 14 04 FFFFFF82 35 FFFFFF82 36 10 04 FFFFFF81 23 FFFFFF82
   2B 08 07 53 FFFFFF82 33 FFFFFFC0 00 FFFFFF82 31 08 07 36 FFFFFF82 2B FFFFFF84
   00 FFFFFF82 38 15 02 FFFFFF82 39 12 05 FFFFFF82 3A 0B FFFFFF82 3D 06 0A
   FFFFFF81 49 00 FFFFFF84 FFFFFF80 FFFFFF80 FFFFFF80 00 FFFFFF82 39 09 04 FFFFFF82 3C FFFFFF81 4C
   01 04 49 6E 74 20 10 04 39 FFFFFF81 4F 41 08 08 FFFFFF81 52
   FFFFFF82 3A FFFFFF84 00 FFFFFF82 3F 15 02 FFFFFF82 40 10 05 0C FFFFFF81 55 FFFFFF82
   41 10 03 0C FFFFFF82 42 09 03 FFFFFF82 43 0D 02 07 49 6E 74
   65 67 65 72 08 06 3F FFFFFF82 2B FFFFFF84 00 40 08 07 45 FFFFFF82
   2B FFFFFF84 00 FFFFFF82 46 14 03 41 FFFFFF82 47 08 06 48 FFFFFF82 45 FFFFFFC0
   00 41 08 07 4A FFFFFF82 2B FFFFFF84 00 FFFFFF82 49 14 05 4C FFFFFF82 4A
   FFFFFF82 4B 08 06 48 FFFFFF82 48 FFFFFFC0 00 41 08 06 51 FFFFFF82 48 FFFFFFC0
   00 41 28 04 FFFFFF82 2B FFFFFF81 33 06 0A FFFFFF82 4E 67 FFFFFF84 FFFFFF80 FFFFFF80
   FFFFFF80 02 FFFFFF82 4F 02 06 6F 66 4C 6F 6E 67 13 05 FFFFFF82 4D
   FFFFFF82 50 27 10 04 14 00 FFFFFF82 51 10 03 1D FFFFFF82 52 09 03
   FFFFFF82 53 06 02 04 4C 6F 6E 67 08 0A 53 FFFFFF82 4D FFFFFF82 FFFFFFC2
   FFFFFF80 FFFFFF84 00 FFFFFF82 55 15 02 FFFFFF82 56 10 04 1D 56 FFFFFF82 51 08
   0B FFFFFF81 1F FFFFFF82 4D FFFFFF82 FFFFFF80 FFFFFFA0 FFFFFF80 04 FFFFFF82 56 08 07 2B FFFFFF82
   4D FFFFFF84 00 FFFFFF82 59 14 04 FFFFFF82 5A FFFFFF82 5B 10 04 FFFFFF81 23 FFFFFF82
   4D 08 07 53 FFFFFF82 58 FFFFFFC0 00 FFFFFF82 56 08 07 36 FFFFFF82 4D FFFFFF84
   00 FFFFFF82 5D 15 02 FFFFFF82 5E 12 05 FFFFFF82 5F 0B FFFFFF82 62 06 0A
   FFFFFF81 49 00 FFFFFF84 FFFFFF80 FFFFFF80 FFFFFF80 00 FFFFFF82 5E 09 04 FFFFFF82 61 FFFFFF81 4C
   01 05 4C 6F 6E 67 20 10 05 39 FFFFFF81 4F FFFFFF82 51 08 08
   FFFFFF81 52 FFFFFF82 5F FFFFFF84 00 FFFFFF82 64 15 02 FFFFFF82 65 10 05 0C FFFFFF81
   55 FFFFFF82 66 10 03 0C FFFFFF82 67 09 03 FFFFFF82 53 0D 08 06 3F
   FFFFFF82 4D FFFFFF84 00 40 08 07 45 FFFFFF82 4D FFFFFF84 00 FFFFFF82 6A 14 04
   FFFFFF82 51 FFFFFF82 6B 08 06 48 FFFFFF82 69 FFFFFFC0 00 41 08 07 4A FFFFFF82
   4D FFFFFF84 00 FFFFFF82 6D 14 05 4C FFFFFF82 6E FFFFFF82 6F 08 06 48 FFFFFF82
   6C FFFFFFC0 00 41 08 07 51 FFFFFF82 6C FFFFFFC0 00 FFFFFF82 51 28 04 FFFFFF82
   4D FFFFFF81 33 06 0A FFFFFF82 72 67 FFFFFF84 FFFFFF80 FFFFFF80 FFFFFF80 02 FFFFFF82 73 02
   07 6F 66 46 6C 6F 61 74 13 05 FFFFFF82 71 FFFFFF82 74 27 10
   04 14 00 FFFFFF82 75 10 03 1D FFFFFF82 76 09 03 FFFFFF82 77 06 02
   05 46 6C 6F 61 74 08 0A 53 FFFFFF82 71 FFFFFF82 FFFFFFC2 FFFFFF80 FFFFFF84 00
   FFFFFF82 79 15 02 FFFFFF82 7A 10 04 1D 56 FFFFFF82 75 08 0B FFFFFF81 1F
   FFFFFF82 71 FFFFFF82 FFFFFF80 FFFFFFA0 FFFFFF80 04 FFFFFF82 7A 08 07 2B FFFFFF82 71 FFFFFF84 00
   FFFFFF82 7D 14 04 FFFFFF82 7E FFFFFF82 7F 10 04 FFFFFF81 23 FFFFFF82 71 08 07
   53 FFFFFF82 7C FFFFFFC0 00 FFFFFF82 7A 08 07 36 FFFFFF82 71 FFFFFF84 00 FFFFFF83 01
   15 02 FFFFFF83 02 12 05 FFFFFF83 03 0B FFFFFF83 06 06 0A FFFFFF81 49 00
   FFFFFF84 FFFFFF80 FFFFFF80 FFFFFF80 00 FFFFFF83 02 09 04 FFFFFF83 05 FFFFFF81 4C 01 06 46
   6C 6F 61 74 20 10 05 39 FFFFFF81 4F FFFFFF82 75 08 08 FFFFFF81 52
   FFFFFF83 03 FFFFFF84 00 FFFFFF83 08 15 02 FFFFFF83 09 10 05 0C FFFFFF81 55 FFFFFF83
   0A 10 03 0C FFFFFF83 0B 09 03 FFFFFF82 77 0D 08 06 3F FFFFFF82 71
   FFFFFF84 00 40 08 07 45 FFFFFF82 71 FFFFFF84 00 FFFFFF83 0E 14 04 FFFFFF82 75
   FFFFFF83 0F 08 06 48 FFFFFF83 0D FFFFFFC0 00 41 08 07 4A FFFFFF82 71 FFFFFF84
   00 FFFFFF83 11 14 05 4C FFFFFF83 12 FFFFFF83 13 08 06 48 FFFFFF83 10 FFFFFFC0
   00 41 08 07 51 FFFFFF83 10 FFFFFFC0 00 FFFFFF82 75 28 04 FFFFFF82 71 FFFFFF81
   33 06 0A FFFFFF83 16 67 FFFFFF84 FFFFFF80 FFFFFF80 FFFFFF80 02 FFFFFF83 17 02 08 6F
   66 44 6F 75 62 6C 65 13 05 FFFFFF83 15 FFFFFF83 18 27 10 04
   14 00 FFFFFF83 19 10 03 1D FFFFFF83 1A 09 03 FFFFFF83 1B 06 02 06
   44 6F 75 62 6C 65 08 0A 53 FFFFFF83 15 FFFFFF82 FFFFFFC2 FFFFFF80 FFFFFF84 00
   FFFFFF83 1D 15 02 FFFFFF83 1E 10 04 1D 56 FFFFFF83 19 08 0B FFFFFF81 1F
   FFFFFF83 15 FFFFFF82 FFFFFF80 FFFFFFA0 FFFFFF80 04 FFFFFF83 1E 08 07 2B FFFFFF83 15 FFFFFF84 00
   FFFFFF83 21 14 04 FFFFFF83 22 FFFFFF83 23 10 04 FFFFFF81 23 FFFFFF83 15 08 07
   53 FFFFFF83 20 FFFFFFC0 00 FFFFFF83 1E 08 07 36 FFFFFF83 15 FFFFFF84 00 FFFFFF83 25
   15 02 FFFFFF83 26 12 05 FFFFFF83 27 0B FFFFFF83 2A 06 0A FFFFFF81 49 00
   FFFFFF84 FFFFFF80 FFFFFF80 FFFFFF80 00 FFFFFF83 26 09 04 FFFFFF83 29 FFFFFF81 4C 01 07 44
   6F 75 62 6C 65 20 10 05 39 FFFFFF81 4F FFFFFF83 19 08 08 FFFFFF81
   52 FFFFFF83 27 FFFFFF84 00 FFFFFF83 2C 15 02 FFFFFF83 2D 10 05 0C FFFFFF81 55
   FFFFFF83 2E 10 03 0C FFFFFF83 2F 09 03 FFFFFF83 1B 0D 08 06 3F FFFFFF83
   15 FFFFFF84 00 40 08 07 45 FFFFFF83 15 FFFFFF84 00 FFFFFF83 32 14 04 FFFFFF83
   19 FFFFFF83 33 08 06 48 FFFFFF83 31 FFFFFFC0 00 41 08 07 4A FFFFFF83 15
   FFFFFF84 00 FFFFFF83 35 14 05 4C FFFFFF83 36 FFFFFF83 37 08 06 48 FFFFFF83 34
   FFFFFFC0 00 41 08 07 51 FFFFFF83 34 FFFFFFC0 00 FFFFFF83 19 28 04 FFFFFF83 15
   FFFFFF81 33 06 0A FFFFFF83 3A 67 FFFFFF84 FFFFFF80 FFFFFF80 FFFFFF80 02 FFFFFF83 3B 02 09
   6F 66 42 6F 6F 6C 65 61 6E 13 05 FFFFFF83 39 FFFFFF83 3C 27
   10 04 14 00 FFFFFF83 3D 10 03 1D FFFFFF83 3E 09 03 FFFFFF83 3F 06
   02 07 42 6F 6F 6C 65 61 6E 08 0A 53 FFFFFF83 39 FFFFFF82 FFFFFFC2
   FFFFFF80 FFFFFF84 00 FFFFFF83 41 15 02 FFFFFF83 42 10 04 1D 56 FFFFFF83 3D 08
   0B FFFFFF81 1F FFFFFF83 39 FFFFFF82 FFFFFF80 FFFFFFA0 FFFFFF80 04 FFFFFF83 42 08 07 2B FFFFFF83
   39 FFFFFF84 00 FFFFFF83 45 14 04 FFFFFF83 46 FFFFFF83 47 10 04 FFFFFF81 23 FFFFFF83
   39 08 07 53 FFFFFF83 44 FFFFFFC0 00 FFFFFF83 42 08 07 36 FFFFFF83 39 FFFFFF84
   00 FFFFFF83 49 15 02 FFFFFF83 4A 12 05 FFFFFF83 4B 0B FFFFFF83 4E 06 0A
   FFFFFF81 49 00 FFFFFF84 FFFFFF80 FFFFFF80 FFFFFF80 00 FFFFFF83 4A 09 04 FFFFFF83 4D FFFFFF81 4C
   01 08 42 6F 6F 6C 65 61 6E 20 10 05 39 FFFFFF81 4F FFFFFF83
   3D 08 08 FFFFFF81 52 FFFFFF83 4B FFFFFF84 00 FFFFFF83 50 15 02 FFFFFF83 51 10
   05 0C FFFFFF81 55 FFFFFF83 52 10 03 0C FFFFFF83 53 09 03 FFFFFF83 3F 0D
   08 06 3F FFFFFF83 39 FFFFFF84 00 40 08 07 45 FFFFFF83 39 FFFFFF84 00 FFFFFF83
   56 14 04 FFFFFF83 3D FFFFFF83 57 08 06 48 FFFFFF83 55 FFFFFFC0 00 41 08
   07 4A FFFFFF83 39 FFFFFF84 00 FFFFFF83 59 14 05 4C FFFFFF83 5A FFFFFF83 5B 08
   06 48 FFFFFF83 58 FFFFFFC0 00 41 08 07 51 FFFFFF83 58 FFFFFFC0 00 FFFFFF83 3D
   28 04 FFFFFF83 39 FFFFFF81 33 06 0A FFFFFF83 5E 67 FFFFFF84 FFFFFF80 FFFFFF80 FFFFFF80 02
   FFFFFF83 5F 02 06 6F 66 55 6E 69 74 13 05 FFFFFF83 5D FFFFFF83 60
   27 10 03 14 00 4C 08 0A 53 FFFFFF83 5D FFFFFF82 FFFFFFC2 FFFFFF80 FFFFFF84 00
   FFFFFF83 62 15 02 FFFFFF83 63 10 03 1D 56 4C 08 0B FFFFFF81 1F FFFFFF83
   5D FFFFFF82 FFFFFF80 FFFFFFA0 FFFFFF80 04 FFFFFF83 63 08 07 2B FFFFFF83 5D FFFFFF84 00 FFFFFF83
   66 14 04 FFFFFF83 67 FFFFFF83 68 10 04 FFFFFF81 23 FFFFFF83 5D 08 07 53
   FFFFFF83 65 FFFFFFC0 00 FFFFFF83 63 08 07 36 FFFFFF83 5D FFFFFF84 00 FFFFFF83 6A 15
   02 FFFFFF83 6B 12 05 FFFFFF83 6C 0B FFFFFF83 6F 06 0A FFFFFF81 49 00 FFFFFF84
   FFFFFF80 FFFFFF80 FFFFFF80 00 FFFFFF83 6B 09 04 FFFFFF83 6E FFFFFF81 4C 01 05 55 6E
   69 74 20 10 04 39 FFFFFF81 4F 4C 08 08 FFFFFF81 52 FFFFFF83 6C FFFFFF84
   00 FFFFFF83 71 15 02 FFFFFF83 72 10 05 0C FFFFFF81 55 FFFFFF83 73 10 03
   0C FFFFFF83 74 09 03 FFFFFF83 75 0D 02 04 56 6F 69 64 08 06
   3F FFFFFF83 5D FFFFFF84 00 40 08 07 45 FFFFFF83 5D FFFFFF84 00 FFFFFF83 78 14
   03 4C FFFFFF83 79 08 06 48 FFFFFF83 77 FFFFFFC0 00 41 08 07 4A FFFFFF83
   5D FFFFFF84 00 FFFFFF83 7B 14 05 4C FFFFFF83 7C FFFFFF83 7D 08 06 48 FFFFFF83
   7A FFFFFFC0 00 41 08 06 51 FFFFFF83 7A FFFFFFC0 00 4C 28 04 FFFFFF83 5D
   FFFFFF81 33 
  InnerClass: 
   public final ofInt=class scala/collection/mutable/WrappedArray$ofInt of class scala/collection/mutable/WrappedArray
   public final ofRef=class scala/collection/mutable/WrappedArray$ofRef of class scala/collection/mutable/WrappedArray
   public final ofUnit=class scala/collection/mutable/WrappedArray$ofUnit of class scala/collection/mutable/WrappedArray
   public final ofLong=class scala/collection/mutable/WrappedArray$ofLong of class scala/collection/mutable/WrappedArray
   public final ofChar=class scala/collection/mutable/WrappedArray$ofChar of class scala/collection/mutable/WrappedArray
   public final ofByte=class scala/collection/mutable/WrappedArray$ofByte of class scala/collection/mutable/WrappedArray
   public final $anon$1=class scala/collection/mutable/WrappedArray$$anon$1 of class scala/collection/mutable/WrappedArray
   public final ofFloat=class scala/collection/mutable/WrappedArray$ofFloat of class scala/collection/mutable/WrappedArray
   public final ofShort=class scala/collection/mutable/WrappedArray$ofShort of class scala/collection/mutable/WrappedArray
   public final ofDouble=class scala/collection/mutable/WrappedArray$ofDouble of class scala/collection/mutable/WrappedArray
   public final ofBoolean=class scala/collection/mutable/WrappedArray$ofBoolean of class scala/collection/mutable/WrappedArray
   public WithFilter=class scala/collection/TraversableLike$WithFilter of class scala/collection/TraversableLike
  minor version: 0
  major version: 49
  Constant pool:
Asciz	SourceFile;
Asciz	WrappedArray.scala;
Asciz	canBuildFrom;
Asciz	(Lscala/reflect/ClassManifest;)Lscala/collection/generic/CanBuildFrom;;
Asciz	Code;
Asciz	scala/collection/mutable/WrappedArray$;
class	scala/collection/mutable/WrappedArray$
Asciz	MODULE$;
Asciz	Lscala/collection/mutable/WrappedArray$;;
NameAndType	MODULE$:Lscala/collection/mutable/WrappedArray$;
Field	scala/collection/mutable/WrappedArray$.MODULE$:Lscala/collection/mutable/WrappedArray$;
NameAndType	canBuildFrom:(Lscala/reflect/ClassManifest;)Lscala/collection/generic/CanBuildFrom;
Method	scala/collection/mutable/WrappedArray$.canBuildFrom:(Lscala/reflect/ClassManifest;)Lscala/collection/generic/CanBuildFrom;
Asciz	<T:Ljava/lang/Object;>(Lscala/reflect/ClassManifest<TT;>;)Lscala/collection/generic/CanBuildFrom<Lscala/collection/mutable/WrappedArray<*>;TT;Lscala/collection/mutable/WrappedArray<TT;>;>;;
Asciz	Signature;
Asciz	make;
Asciz	(Ljava/lang/Object;)Lscala/collection/mutable/WrappedArray;;
NameAndType	make:(Ljava/lang/Object;)Lscala/collection/mutable/WrappedArray;
Method	scala/collection/mutable/WrappedArray$.make:(Ljava/lang/Object;)Lscala/collection/mutable/WrappedArray;
Asciz	<T:Ljava/lang/Object;>(Ljava/lang/Object;)Lscala/collection/mutable/WrappedArray<TT;>;;
Asciz	<init>;
Asciz	()V;
Asciz	LineNumberTable;
Asciz	java/lang/Object;
class	java/lang/Object
NameAndType	"<init>":()V
Method	java/lang/Object."<init>":()V
Asciz	scala/collection/TraversableLike$class;
class	scala/collection/TraversableLike$class
Asciz	$init$;
Asciz	(Lscala/collection/TraversableLike;)V;
NameAndType	$init$:(Lscala/collection/TraversableLike;)V
Method	scala/collection/TraversableLike$class.$init$:(Lscala/collection/TraversableLike;)V
Asciz	scala/collection/generic/GenericTraversableTemplate$class;
class	scala/collection/generic/GenericTraversableTemplate$class
Asciz	(Lscala/collection/generic/GenericTraversableTemplate;)V;
NameAndType	$init$:(Lscala/collection/generic/GenericTraversableTemplate;)V
Method	scala/collection/generic/GenericTraversableTemplate$class.$init$:(Lscala/collection/generic/GenericTraversableTemplate;)V
Asciz	scala/collection/Traversable$class;
class	scala/collection/Traversable$class
Asciz	(Lscala/collection/Traversable;)V;
NameAndType	$init$:(Lscala/collection/Traversable;)V
Method	scala/collection/Traversable$class.$init$:(Lscala/collection/Traversable;)V
Asciz	scala/collection/mutable/Traversable$class;
class	scala/collection/mutable/Traversable$class
Asciz	(Lscala/collection/mutable/Traversable;)V;
NameAndType	$init$:(Lscala/collection/mutable/Traversable;)V
Method	scala/collection/mutable/Traversable$class.$init$:(Lscala/collection/mutable/Traversable;)V
Asciz	scala/collection/IterableLike$class;
class	scala/collection/IterableLike$class
Asciz	(Lscala/collection/IterableLike;)V;
NameAndType	$init$:(Lscala/collection/IterableLike;)V
Method	scala/collection/IterableLike$class.$init$:(Lscala/collection/IterableLike;)V
Asciz	scala/collection/Iterable$class;
class	scala/collection/Iterable$class
Asciz	(Lscala/collection/Iterable;)V;
NameAndType	$init$:(Lscala/collection/Iterable;)V
Method	scala/collection/Iterable$class.$init$:(Lscala/collection/Iterable;)V
Asciz	scala/collection/mutable/Iterable$class;
class	scala/collection/mutable/Iterable$class
Asciz	(Lscala/collection/mutable/Iterable;)V;
NameAndType	$init$:(Lscala/collection/mutable/Iterable;)V
Method	scala/collection/mutable/Iterable$class.$init$:(Lscala/collection/mutable/Iterable;)V
Asciz	scala/Function1$class;
class	scala/Function1$class
Asciz	(Lscala/Function1;)V;
NameAndType	$init$:(Lscala/Function1;)V
Method	scala/Function1$class.$init$:(Lscala/Function1;)V
Asciz	scala/PartialFunction$class;
class	scala/PartialFunction$class
Asciz	(Lscala/PartialFunction;)V;
NameAndType	$init$:(Lscala/PartialFunction;)V
Method	scala/PartialFunction$class.$init$:(Lscala/PartialFunction;)V
Asciz	scala/collection/SeqLike$class;
class	scala/collection/SeqLike$class
Asciz	(Lscala/collection/SeqLike;)V;
NameAndType	$init$:(Lscala/collection/SeqLike;)V
Method	scala/collection/SeqLike$class.$init$:(Lscala/collection/SeqLike;)V
Asciz	scala/collection/Seq$class;
class	scala/collection/Seq$class
Asciz	(Lscala/collection/Seq;)V;
NameAndType	$init$:(Lscala/collection/Seq;)V
Method	scala/collection/Seq$class.$init$:(Lscala/collection/Seq;)V
Asciz	scala/collection/mutable/Seq$class;
class	scala/collection/mutable/Seq$class
Asciz	(Lscala/collection/mutable/Seq;)V;
NameAndType	$init$:(Lscala/collection/mutable/Seq;)V
Method	scala/collection/mutable/Seq$class.$init$:(Lscala/collection/mutable/Seq;)V
Asciz	scala/collection/IndexedSeqLike$class;
class	scala/collection/IndexedSeqLike$class
Asciz	(Lscala/collection/IndexedSeqLike;)V;
NameAndType	$init$:(Lscala/collection/IndexedSeqLike;)V
Method	scala/collection/IndexedSeqLike$class.$init$:(Lscala/collection/IndexedSeqLike;)V
Asciz	scala/collection/IndexedSeq$class;
class	scala/collection/IndexedSeq$class
Asciz	(Lscala/collection/IndexedSeq;)V;
NameAndType	$init$:(Lscala/collection/IndexedSeq;)V
Method	scala/collection/IndexedSeq$class.$init$:(Lscala/collection/IndexedSeq;)V
Asciz	scala/collection/mutable/IndexedSeqLike$class;
class	scala/collection/mutable/IndexedSeqLike$class
Asciz	(Lscala/collection/mutable/IndexedSeqLike;)V;
NameAndType	$init$:(Lscala/collection/mutable/IndexedSeqLike;)V
Method	scala/collection/mutable/IndexedSeqLike$class.$init$:(Lscala/collection/mutable/IndexedSeqLike;)V
Asciz	scala/collection/mutable/IndexedSeq$class;
class	scala/collection/mutable/IndexedSeq$class
Asciz	(Lscala/collection/mutable/IndexedSeq;)V;
NameAndType	$init$:(Lscala/collection/mutable/IndexedSeq;)V
Method	scala/collection/mutable/IndexedSeq$class.$init$:(Lscala/collection/mutable/IndexedSeq;)V
Asciz	scala/collection/mutable/ArrayLike$class;
class	scala/collection/mutable/ArrayLike$class
Asciz	(Lscala/collection/mutable/ArrayLike;)V;
NameAndType	$init$:(Lscala/collection/mutable/ArrayLike;)V
Method	scala/collection/mutable/ArrayLike$class.$init$:(Lscala/collection/mutable/ArrayLike;)V
Asciz	thisCollection;
Asciz	()Lscala/collection/mutable/IndexedSeq;;
Asciz	scala/collection/mutable/WrappedArray;
class	scala/collection/mutable/WrappedArray
Asciz	()Lscala/collection/mutable/WrappedArray;;
NameAndType	thisCollection:()Lscala/collection/mutable/WrappedArray;
Method	scala/collection/mutable/WrappedArray.thisCollection:()Lscala/collection/mutable/WrappedArray;
Asciz	()Lscala/collection/IndexedSeq;;
Asciz	()Lscala/collection/Seq;;
Asciz	()Lscala/collection/Iterable;;
Asciz	()Lscala/collection/Traversable;;
Asciz	toCollection;
Asciz	(Ljava/lang/Object;)Lscala/collection/mutable/IndexedSeq;;
Asciz	(Lscala/collection/mutable/WrappedArray;)Lscala/collection/mutable/WrappedArray;;
NameAndType	toCollection:(Lscala/collection/mutable/WrappedArray;)Lscala/collection/mutable/WrappedArray;
Method	scala/collection/mutable/WrappedArray.toCollection:(Lscala/collection/mutable/WrappedArray;)Lscala/collection/mutable/WrappedArray;
Asciz	this;
Asciz	Lscala/collection/mutable/WrappedArray;;
Asciz	repr;
Asciz	Ljava/lang/Object;;
Asciz	LocalVariableTable;
Asciz	(Ljava/lang/Object;)Lscala/collection/IndexedSeq;;
Asciz	(Ljava/lang/Object;)Lscala/collection/Seq;;
Asciz	(Ljava/lang/Object;)Lscala/collection/Iterable;;
Asciz	(Ljava/lang/Object;)Lscala/collection/Traversable;;
Asciz	view;
Asciz	(II)Lscala/collection/IndexedSeqView;;
Asciz	scala/collection/mutable/IndexedSeqLike;
class	scala/collection/mutable/IndexedSeqLike
Asciz	(II)Lscala/collection/mutable/IndexedSeqView;;
NameAndType	view:(II)Lscala/collection/mutable/IndexedSeqView;
InterfaceMethod	scala/collection/mutable/IndexedSeqLike.view:(II)Lscala/collection/mutable/IndexedSeqView;
Asciz	from;
Asciz	I;
Asciz	until;
Asciz	(II)Lscala/collection/SeqView;;
Asciz	(II)Lscala/collection/IterableView;;
Asciz	(II)Lscala/collection/TraversableView;;
Asciz	isDefinedAt;
Asciz	(Ljava/lang/Object;)Z;
Asciz	scala/runtime/BoxesRunTime;
class	scala/runtime/BoxesRunTime
Asciz	unboxToInt;
Asciz	(Ljava/lang/Object;)I;
NameAndType	unboxToInt:(Ljava/lang/Object;)I
Method	scala/runtime/BoxesRunTime.unboxToInt:(Ljava/lang/Object;)I
Asciz	scala/collection/SeqLike;
class	scala/collection/SeqLike
Asciz	(I)Z;
NameAndType	isDefinedAt:(I)Z
InterfaceMethod	scala/collection/SeqLike.isDefinedAt:(I)Z
Asciz	x;
Asciz	andThen;
Asciz	(Lscala/Function1;)Lscala/Function1;;
Asciz	scala/PartialFunction;
class	scala/PartialFunction
Asciz	(Lscala/Function1;)Lscala/PartialFunction;;
NameAndType	andThen:(Lscala/Function1;)Lscala/PartialFunction;
InterfaceMethod	scala/PartialFunction.andThen:(Lscala/Function1;)Lscala/PartialFunction;
Asciz	g;
Asciz	Lscala/Function1;;
Asciz	newBuilder;
Asciz	()Lscala/collection/mutable/Builder;;
Asciz	scala/collection/mutable/WrappedArrayBuilder;
class	scala/collection/mutable/WrappedArrayBuilder
Asciz	elemManifest;
Asciz	()Lscala/reflect/ClassManifest;;
NameAndType	elemManifest:()Lscala/reflect/ClassManifest;
Method	scala/collection/mutable/WrappedArray.elemManifest:()Lscala/reflect/ClassManifest;
Asciz	(Lscala/reflect/ClassManifest;)V;
NameAndType	"<init>":(Lscala/reflect/ClassManifest;)V
Method	scala/collection/mutable/WrappedArrayBuilder."<init>":(Lscala/reflect/ClassManifest;)V
Asciz	()Lscala/collection/mutable/Builder<TT;Lscala/collection/mutable/WrappedArray<TT;>;>;;
Asciz	stringPrefix;
Asciz	()Ljava/lang/String;;
Asciz	WrappedArray;
String	WrappedArray
Asciz	array;
Asciz	()Ljava/lang/Object;;
Asciz	()[TT;;
Asciz	update;
Asciz	(ILjava/lang/Object;)V;
Asciz	(ITT;)V;
Asciz	apply;
Asciz	(I)Ljava/lang/Object;;
Asciz	(I)TT;;
Asciz	length;
Asciz	()I;
Asciz	()Lscala/reflect/ClassManifest<TT;>;;
Asciz	(Lscala/collection/mutable/WrappedArray<TT;>;)Lscala/collection/mutable/WrappedArray<TT;>;;
Asciz	()Lscala/collection/mutable/WrappedArray<TT;>;;
Asciz	withFilter;
Asciz	(Lscala/Function1;)Lscala/collection/TraversableLike$WithFilter;;
Asciz	(Lscala/collection/TraversableLike;Lscala/Function1;)Lscala/collection/TraversableLike$WithFilter;;
NameAndType	withFilter:(Lscala/collection/TraversableLike;Lscala/Function1;)Lscala/collection/TraversableLike$WithFilter;
Method	scala/collection/TraversableLike$class.withFilter:(Lscala/collection/TraversableLike;Lscala/Function1;)Lscala/collection/TraversableLike$WithFilter;
Asciz	p;
Asciz	addString;
Asciz	(Lscala/collection/mutable/StringBuilder;)Lscala/collection/mutable/StringBuilder;;
Asciz	(Lscala/collection/TraversableLike;Lscala/collection/mutable/StringBuilder;)Lscala/collection/mutable/StringBuilder;;
NameAndType	addString:(Lscala/collection/TraversableLike;Lscala/collection/mutable/StringBuilder;)Lscala/collection/mutable/StringBuilder;
Method	scala/collection/TraversableLike$class.addString:(Lscala/collection/TraversableLike;Lscala/collection/mutable/StringBuilder;)Lscala/collection/mutable/StringBuilder;
Asciz	b;
Asciz	Lscala/collection/mutable/StringBuilder;;
Asciz	(Lscala/collection/mutable/StringBuilder;Ljava/lang/String;)Lscala/collection/mutable/StringBuilder;;
Asciz	(Lscala/collection/TraversableLike;Lscala/collection/mutable/StringBuilder;Ljava/lang/String;)Lscala/collection/mutable/StringBuilder;;
NameAndType	addString:(Lscala/collection/TraversableLike;Lscala/collection/mutable/StringBuilder;Ljava/lang/String;)Lscala/collection/mutable/StringBuilder;
Method	scala/collection/TraversableLike$class.addString:(Lscala/collection/TraversableLike;Lscala/collection/mutable/StringBuilder;Ljava/lang/String;)Lscala/collection/mutable/StringBuilder;
Asciz	sep;
Asciz	Ljava/lang/String;;
Asciz	(Lscala/collection/mutable/StringBuilder;Ljava/lang/String;Ljava/lang/String;Ljava/lang/String;)Lscala/collection/mutable/StringBuilder;;
Asciz	(Lscala/collection/TraversableLike;Lscala/collection/mutable/StringBuilder;Ljava/lang/String;Ljava/lang/String;Ljava/lang/String;)Lscala/collection/mutable/StringBuilder;;
NameAndType	addString:(Lscala/collection/TraversableLike;Lscala/collection/mutable/StringBuilder;Ljava/lang/String;Ljava/lang/String;Ljava/lang/String;)Lscala/collection/mutable/StringBuilder;
Method	scala/collection/TraversableLike$class.addString:(Lscala/collection/TraversableLike;Lscala/collection/mutable/StringBuilder;Ljava/lang/String;Ljava/lang/String;Ljava/lang/String;)Lscala/collection/mutable/StringBuilder;
Asciz	start;
Asciz	end;
Asciz	mkString;
Asciz	(Lscala/collection/TraversableLike;)Ljava/lang/String;;
NameAndType	mkString:(Lscala/collection/TraversableLike;)Ljava/lang/String;
Method	scala/collection/TraversableLike$class.mkString:(Lscala/collection/TraversableLike;)Ljava/lang/String;
Asciz	(Ljava/lang/String;)Ljava/lang/String;;
Asciz	(Lscala/collection/TraversableLike;Ljava/lang/String;)Ljava/lang/String;;
NameAndType	mkString:(Lscala/collection/TraversableLike;Ljava/lang/String;)Ljava/lang/String;
Method	scala/collection/TraversableLike$class.mkString:(Lscala/collection/TraversableLike;Ljava/lang/String;)Ljava/lang/String;
Asciz	(Ljava/lang/String;Ljava/lang/String;Ljava/lang/String;)Ljava/lang/String;;
Asciz	(Lscala/collection/TraversableLike;Ljava/lang/String;Ljava/lang/String;Ljava/lang/String;)Ljava/lang/String;;
NameAndType	mkString:(Lscala/collection/TraversableLike;Ljava/lang/String;Ljava/lang/String;Ljava/lang/String;)Ljava/lang/String;
Method	scala/collection/TraversableLike$class.mkString:(Lscala/collection/TraversableLike;Ljava/lang/String;Ljava/lang/String;Ljava/lang/String;)Ljava/lang/String;
Asciz	toSet;
Asciz	()Lscala/collection/immutable/Set;;
Asciz	(Lscala/collection/TraversableLike;)Lscala/collection/immutable/Set;;
NameAndType	toSet:(Lscala/collection/TraversableLike;)Lscala/collection/immutable/Set;
Method	scala/collection/TraversableLike$class.toSet:(Lscala/collection/TraversableLike;)Lscala/collection/immutable/Set;
Asciz	toIndexedSeq;
Asciz	(Lscala/collection/TraversableLike;)Lscala/collection/mutable/IndexedSeq;;
NameAndType	toIndexedSeq:(Lscala/collection/TraversableLike;)Lscala/collection/mutable/IndexedSeq;
Method	scala/collection/TraversableLike$class.toIndexedSeq:(Lscala/collection/TraversableLike;)Lscala/collection/mutable/IndexedSeq;
Asciz	toList;
Asciz	()Lscala/collection/immutable/List;;
Asciz	(Lscala/collection/TraversableLike;)Lscala/collection/immutable/List;;
NameAndType	toList:(Lscala/collection/TraversableLike;)Lscala/collection/immutable/List;
Method	scala/collection/TraversableLike$class.toList:(Lscala/collection/TraversableLike;)Lscala/collection/immutable/List;
Asciz	toArray;
Asciz	(Lscala/reflect/ClassManifest;)Ljava/lang/Object;;
Asciz	(Lscala/collection/TraversableLike;Lscala/reflect/ClassManifest;)Ljava/lang/Object;;
NameAndType	toArray:(Lscala/collection/TraversableLike;Lscala/reflect/ClassManifest;)Ljava/lang/Object;
Method	scala/collection/TraversableLike$class.toArray:(Lscala/collection/TraversableLike;Lscala/reflect/ClassManifest;)Ljava/lang/Object;
Asciz	evidence$1;
Asciz	Lscala/reflect/ClassManifest;;
Asciz	copyToArray;
Asciz	(Ljava/lang/Object;I)V;
Asciz	(Lscala/collection/TraversableLike;Ljava/lang/Object;I)V;
NameAndType	copyToArray:(Lscala/collection/TraversableLike;Ljava/lang/Object;I)V
Method	scala/collection/TraversableLike$class.copyToArray:(Lscala/collection/TraversableLike;Ljava/lang/Object;I)V
Asciz	xs;
Asciz	copyToBuffer;
Asciz	(Lscala/collection/mutable/Buffer;)V;
Asciz	(Lscala/collection/TraversableLike;Lscala/collection/mutable/Buffer;)V;
NameAndType	copyToBuffer:(Lscala/collection/TraversableLike;Lscala/collection/mutable/Buffer;)V
Method	scala/collection/TraversableLike$class.copyToBuffer:(Lscala/collection/TraversableLike;Lscala/collection/mutable/Buffer;)V
Asciz	dest;
Asciz	Lscala/collection/mutable/Buffer;;
Asciz	lastOption;
Asciz	()Lscala/Option;;
Asciz	(Lscala/collection/TraversableLike;)Lscala/Option;;
NameAndType	lastOption:(Lscala/collection/TraversableLike;)Lscala/Option;
Method	scala/collection/TraversableLike$class.lastOption:(Lscala/collection/TraversableLike;)Lscala/Option;
Asciz	headOption;
NameAndType	headOption:(Lscala/collection/TraversableLike;)Lscala/Option;
Method	scala/collection/TraversableLike$class.headOption:(Lscala/collection/TraversableLike;)Lscala/Option;
Asciz	max;
Asciz	(Lscala/math/Ordering;)Ljava/lang/Object;;
Asciz	(Lscala/collection/TraversableLike;Lscala/math/Ordering;)Ljava/lang/Object;;
NameAndType	max:(Lscala/collection/TraversableLike;Lscala/math/Ordering;)Ljava/lang/Object;
Method	scala/collection/TraversableLike$class.max:(Lscala/collection/TraversableLike;Lscala/math/Ordering;)Ljava/lang/Object;
Asciz	cmp;
Asciz	Lscala/math/Ordering;;
Asciz	min;
NameAndType	min:(Lscala/collection/TraversableLike;Lscala/math/Ordering;)Ljava/lang/Object;
Method	scala/collection/TraversableLike$class.min:(Lscala/collection/TraversableLike;Lscala/math/Ordering;)Ljava/lang/Object;
Asciz	product;
Asciz	(Lscala/math/Numeric;)Ljava/lang/Object;;
Asciz	(Lscala/collection/TraversableLike;Lscala/math/Numeric;)Ljava/lang/Object;;
NameAndType	product:(Lscala/collection/TraversableLike;Lscala/math/Numeric;)Ljava/lang/Object;
Method	scala/collection/TraversableLike$class.product:(Lscala/collection/TraversableLike;Lscala/math/Numeric;)Ljava/lang/Object;
Asciz	num;
Asciz	Lscala/math/Numeric;;
Asciz	sum;
NameAndType	sum:(Lscala/collection/TraversableLike;Lscala/math/Numeric;)Ljava/lang/Object;
Method	scala/collection/TraversableLike$class.sum:(Lscala/collection/TraversableLike;Lscala/math/Numeric;)Ljava/lang/Object;
Asciz	reduceRightOption;
Asciz	(Lscala/Function2;)Lscala/Option;;
Asciz	(Lscala/collection/TraversableLike;Lscala/Function2;)Lscala/Option;;
NameAndType	reduceRightOption:(Lscala/collection/TraversableLike;Lscala/Function2;)Lscala/Option;
Method	scala/collection/TraversableLike$class.reduceRightOption:(Lscala/collection/TraversableLike;Lscala/Function2;)Lscala/Option;
Asciz	op;
Asciz	Lscala/Function2;;
Asciz	reduceLeftOption;
NameAndType	reduceLeftOption:(Lscala/collection/TraversableLike;Lscala/Function2;)Lscala/Option;
Method	scala/collection/TraversableLike$class.reduceLeftOption:(Lscala/collection/TraversableLike;Lscala/Function2;)Lscala/Option;
Asciz	$colon$bslash;
Asciz	(Ljava/lang/Object;Lscala/Function2;)Ljava/lang/Object;;
Asciz	(Lscala/collection/TraversableLike;Ljava/lang/Object;Lscala/Function2;)Ljava/lang/Object;;
NameAndType	$colon$bslash:(Lscala/collection/TraversableLike;Ljava/lang/Object;Lscala/Function2;)Ljava/lang/Object;
Method	scala/collection/TraversableLike$class.$colon$bslash:(Lscala/collection/TraversableLike;Ljava/lang/Object;Lscala/Function2;)Ljava/lang/Object;
Asciz	z;
Asciz	$div$colon;
NameAndType	$div$colon:(Lscala/collection/TraversableLike;Ljava/lang/Object;Lscala/Function2;)Ljava/lang/Object;
Method	scala/collection/TraversableLike$class.$div$colon:(Lscala/collection/TraversableLike;Ljava/lang/Object;Lscala/Function2;)Ljava/lang/Object;
Asciz	count;
Asciz	(Lscala/Function1;)I;
Asciz	(Lscala/collection/TraversableLike;Lscala/Function1;)I;
NameAndType	count:(Lscala/collection/TraversableLike;Lscala/Function1;)I
Method	scala/collection/TraversableLike$class.count:(Lscala/collection/TraversableLike;Lscala/Function1;)I
Asciz	groupBy;
Asciz	(Lscala/Function1;)Lscala/collection/Map;;
Asciz	(Lscala/collection/TraversableLike;Lscala/Function1;)Lscala/collection/Map;;
NameAndType	groupBy:(Lscala/collection/TraversableLike;Lscala/Function1;)Lscala/collection/Map;
Method	scala/collection/TraversableLike$class.groupBy:(Lscala/collection/TraversableLike;Lscala/Function1;)Lscala/collection/Map;
Asciz	f;
Asciz	partition;
Asciz	(Lscala/Function1;)Lscala/Tuple2;;
Asciz	(Lscala/collection/TraversableLike;Lscala/Function1;)Lscala/Tuple2;;
NameAndType	partition:(Lscala/collection/TraversableLike;Lscala/Function1;)Lscala/Tuple2;
Method	scala/collection/TraversableLike$class.partition:(Lscala/collection/TraversableLike;Lscala/Function1;)Lscala/Tuple2;
Asciz	partialMap;
Asciz	(Lscala/PartialFunction;Lscala/collection/generic/CanBuildFrom;)Ljava/lang/Object;;
Asciz	(Lscala/collection/TraversableLike;Lscala/PartialFunction;Lscala/collection/generic/CanBuildFrom;)Ljava/lang/Object;;
NameAndType	partialMap:(Lscala/collection/TraversableLike;Lscala/PartialFunction;Lscala/collection/generic/CanBuildFrom;)Ljava/lang/Object;
Method	scala/collection/TraversableLike$class.partialMap:(Lscala/collection/TraversableLike;Lscala/PartialFunction;Lscala/collection/generic/CanBuildFrom;)Ljava/lang/Object;
Asciz	pf;
Asciz	Lscala/PartialFunction;;
Asciz	bf;
Asciz	Lscala/collection/generic/CanBuildFrom;;
Asciz	filterNot;
Asciz	(Lscala/Function1;)Ljava/lang/Object;;
Asciz	(Lscala/collection/TraversableLike;Lscala/Function1;)Ljava/lang/Object;;
NameAndType	filterNot:(Lscala/collection/TraversableLike;Lscala/Function1;)Ljava/lang/Object;
Method	scala/collection/TraversableLike$class.filterNot:(Lscala/collection/TraversableLike;Lscala/Function1;)Ljava/lang/Object;
Asciz	filter;
NameAndType	filter:(Lscala/collection/TraversableLike;Lscala/Function1;)Ljava/lang/Object;
Method	scala/collection/TraversableLike$class.filter:(Lscala/collection/TraversableLike;Lscala/Function1;)Ljava/lang/Object;
Asciz	flatMap;
Asciz	(Lscala/Function1;Lscala/collection/generic/CanBuildFrom;)Ljava/lang/Object;;
Asciz	(Lscala/collection/TraversableLike;Lscala/Function1;Lscala/collection/generic/CanBuildFrom;)Ljava/lang/Object;;
NameAndType	flatMap:(Lscala/collection/TraversableLike;Lscala/Function1;Lscala/collection/generic/CanBuildFrom;)Ljava/lang/Object;
Method	scala/collection/TraversableLike$class.flatMap:(Lscala/collection/TraversableLike;Lscala/Function1;Lscala/collection/generic/CanBuildFrom;)Ljava/lang/Object;
Asciz	map;
NameAndType	map:(Lscala/collection/TraversableLike;Lscala/Function1;Lscala/collection/generic/CanBuildFrom;)Ljava/lang/Object;
Method	scala/collection/TraversableLike$class.map:(Lscala/collection/TraversableLike;Lscala/Function1;Lscala/collection/generic/CanBuildFrom;)Ljava/lang/Object;
Asciz	$plus$plus;
Asciz	(Lscala/collection/Iterator;Lscala/collection/generic/CanBuildFrom;)Ljava/lang/Object;;
Asciz	(Lscala/collection/TraversableLike;Lscala/collection/Iterator;Lscala/collection/generic/CanBuildFrom;)Ljava/lang/Object;;
NameAndType	$plus$plus:(Lscala/collection/TraversableLike;Lscala/collection/Iterator;Lscala/collection/generic/CanBuildFrom;)Ljava/lang/Object;
Method	scala/collection/TraversableLike$class.$plus$plus:(Lscala/collection/TraversableLike;Lscala/collection/Iterator;Lscala/collection/generic/CanBuildFrom;)Ljava/lang/Object;
Asciz	that;
Asciz	Lscala/collection/Iterator;;
Asciz	(Lscala/collection/Traversable;Lscala/collection/generic/CanBuildFrom;)Ljava/lang/Object;;
Asciz	(Lscala/collection/TraversableLike;Lscala/collection/Traversable;Lscala/collection/generic/CanBuildFrom;)Ljava/lang/Object;;
NameAndType	$plus$plus:(Lscala/collection/TraversableLike;Lscala/collection/Traversable;Lscala/collection/generic/CanBuildFrom;)Ljava/lang/Object;
Method	scala/collection/TraversableLike$class.$plus$plus:(Lscala/collection/TraversableLike;Lscala/collection/Traversable;Lscala/collection/generic/CanBuildFrom;)Ljava/lang/Object;
Asciz	Lscala/collection/Traversable;;
Asciz	hasDefiniteSize;
Asciz	()Z;
Asciz	(Lscala/collection/TraversableLike;)Z;
NameAndType	hasDefiniteSize:(Lscala/collection/TraversableLike;)Z
Method	scala/collection/TraversableLike$class.hasDefiniteSize:(Lscala/collection/TraversableLike;)Z
Asciz	nonEmpty;
NameAndType	nonEmpty:(Lscala/collection/TraversableLike;)Z
Method	scala/collection/TraversableLike$class.nonEmpty:(Lscala/collection/TraversableLike;)Z
Asciz	(Lscala/collection/TraversableLike;)Ljava/lang/Object;;
NameAndType	repr:(Lscala/collection/TraversableLike;)Ljava/lang/Object;
Method	scala/collection/TraversableLike$class.repr:(Lscala/collection/TraversableLike;)Ljava/lang/Object;
Asciz	transpose;
Asciz	(Lscala/Function1;)Lscala/collection/Traversable;;
Asciz	(Lscala/collection/generic/GenericTraversableTemplate;Lscala/Function1;)Lscala/collection/Traversable;;
NameAndType	transpose:(Lscala/collection/generic/GenericTraversableTemplate;Lscala/Function1;)Lscala/collection/Traversable;
Method	scala/collection/generic/GenericTraversableTemplate$class.transpose:(Lscala/collection/generic/GenericTraversableTemplate;Lscala/Function1;)Lscala/collection/Traversable;
Asciz	asTraversable;
Asciz	flatten;
NameAndType	flatten:(Lscala/collection/generic/GenericTraversableTemplate;Lscala/Function1;)Lscala/collection/Traversable;
Method	scala/collection/generic/GenericTraversableTemplate$class.flatten:(Lscala/collection/generic/GenericTraversableTemplate;Lscala/Function1;)Lscala/collection/Traversable;
Asciz	unzip;
Asciz	(Lscala/collection/generic/GenericTraversableTemplate;Lscala/Function1;)Lscala/Tuple2;;
NameAndType	unzip:(Lscala/collection/generic/GenericTraversableTemplate;Lscala/Function1;)Lscala/Tuple2;
Method	scala/collection/generic/GenericTraversableTemplate$class.unzip:(Lscala/collection/generic/GenericTraversableTemplate;Lscala/Function1;)Lscala/Tuple2;
Asciz	asPair;
Asciz	genericBuilder;
Asciz	(Lscala/collection/generic/GenericTraversableTemplate;)Lscala/collection/mutable/Builder;;
NameAndType	genericBuilder:(Lscala/collection/generic/GenericTraversableTemplate;)Lscala/collection/mutable/Builder;
Method	scala/collection/generic/GenericTraversableTemplate$class.genericBuilder:(Lscala/collection/generic/GenericTraversableTemplate;)Lscala/collection/mutable/Builder;
Asciz	firstOption;
Asciz	(Lscala/collection/IterableLike;)Lscala/Option;;
NameAndType	firstOption:(Lscala/collection/IterableLike;)Lscala/Option;
Method	scala/collection/IterableLike$class.firstOption:(Lscala/collection/IterableLike;)Lscala/Option;
Asciz	first;
Asciz	(Lscala/collection/IterableLike;)Ljava/lang/Object;;
NameAndType	first:(Lscala/collection/IterableLike;)Ljava/lang/Object;
Method	scala/collection/IterableLike$class.first:(Lscala/collection/IterableLike;)Ljava/lang/Object;
Asciz	canEqual;
Asciz	(Lscala/collection/IterableLike;Ljava/lang/Object;)Z;
NameAndType	canEqual:(Lscala/collection/IterableLike;Ljava/lang/Object;)Z
Method	scala/collection/IterableLike$class.canEqual:(Lscala/collection/IterableLike;Ljava/lang/Object;)Z
Asciz	toStream;
Asciz	()Lscala/collection/immutable/Stream;;
Asciz	(Lscala/collection/IterableLike;)Lscala/collection/immutable/Stream;;
NameAndType	toStream:(Lscala/collection/IterableLike;)Lscala/collection/immutable/Stream;
Method	scala/collection/IterableLike$class.toStream:(Lscala/collection/IterableLike;)Lscala/collection/immutable/Stream;
Asciz	zipAll;
Asciz	(Lscala/collection/Iterable;Ljava/lang/Object;Ljava/lang/Object;Lscala/collection/generic/CanBuildFrom;)Ljava/lang/Object;;
Asciz	(Lscala/collection/IterableLike;Lscala/collection/Iterable;Ljava/lang/Object;Ljava/lang/Object;Lscala/collection/generic/CanBuildFrom;)Ljava/lang/Object;;
NameAndType	zipAll:(Lscala/collection/IterableLike;Lscala/collection/Iterable;Ljava/lang/Object;Ljava/lang/Object;Lscala/collection/generic/CanBuildFrom;)Ljava/lang/Object;
Method	scala/collection/IterableLike$class.zipAll:(Lscala/collection/IterableLike;Lscala/collection/Iterable;Ljava/lang/Object;Ljava/lang/Object;Lscala/collection/generic/CanBuildFrom;)Ljava/lang/Object;
Asciz	Lscala/collection/Iterable;;
Asciz	thisElem;
Asciz	thatElem;
Asciz	toIterable;
Asciz	(Lscala/collection/IterableLike;)Lscala/collection/Iterable;;
NameAndType	toIterable:(Lscala/collection/IterableLike;)Lscala/collection/Iterable;
Method	scala/collection/IterableLike$class.toIterable:(Lscala/collection/IterableLike;)Lscala/collection/Iterable;
Asciz	elements;
Asciz	()Lscala/collection/Iterator;;
Asciz	(Lscala/collection/IterableLike;)Lscala/collection/Iterator;;
NameAndType	elements:(Lscala/collection/IterableLike;)Lscala/collection/Iterator;
Method	scala/collection/IterableLike$class.elements:(Lscala/collection/IterableLike;)Lscala/collection/Iterator;
Asciz	compose;
Asciz	(Lscala/Function1;Lscala/Function1;)Lscala/Function1;;
NameAndType	compose:(Lscala/Function1;Lscala/Function1;)Lscala/Function1;
Method	scala/Function1$class.compose:(Lscala/Function1;Lscala/Function1;)Lscala/Function1;
Asciz	(Lscala/PartialFunction;Lscala/Function1;)Lscala/PartialFunction;;
NameAndType	andThen:(Lscala/PartialFunction;Lscala/Function1;)Lscala/PartialFunction;
Method	scala/PartialFunction$class.andThen:(Lscala/PartialFunction;Lscala/Function1;)Lscala/PartialFunction;
Asciz	k;
Asciz	orElse;
Asciz	(Lscala/PartialFunction;)Lscala/PartialFunction;;
Asciz	(Lscala/PartialFunction;Lscala/PartialFunction;)Lscala/PartialFunction;;
NameAndType	orElse:(Lscala/PartialFunction;Lscala/PartialFunction;)Lscala/PartialFunction;
Method	scala/PartialFunction$class.orElse:(Lscala/PartialFunction;Lscala/PartialFunction;)Lscala/PartialFunction;
Asciz	projection;
Asciz	(Lscala/collection/SeqLike;)Ljava/lang/Object;;
NameAndType	projection:(Lscala/collection/SeqLike;)Ljava/lang/Object;
Method	scala/collection/SeqLike$class.projection:(Lscala/collection/SeqLike;)Ljava/lang/Object;
Asciz	containsSlice;
Asciz	(Lscala/collection/Seq;)Z;
Asciz	(Lscala/collection/SeqLike;Lscala/collection/Seq;)Z;
NameAndType	containsSlice:(Lscala/collection/SeqLike;Lscala/collection/Seq;)Z
Method	scala/collection/SeqLike$class.containsSlice:(Lscala/collection/SeqLike;Lscala/collection/Seq;)Z
Asciz	Lscala/collection/Seq;;
Asciz	equalsWith;
Asciz	(Lscala/collection/Seq;Lscala/Function2;)Z;
Asciz	(Lscala/collection/SeqLike;Lscala/collection/Seq;Lscala/Function2;)Z;
NameAndType	equalsWith:(Lscala/collection/SeqLike;Lscala/collection/Seq;Lscala/Function2;)Z
Method	scala/collection/SeqLike$class.equalsWith:(Lscala/collection/SeqLike;Lscala/collection/Seq;Lscala/Function2;)Z
Asciz	findLastIndexOf;
Asciz	(Lscala/collection/SeqLike;Lscala/Function1;)I;
NameAndType	findLastIndexOf:(Lscala/collection/SeqLike;Lscala/Function1;)I
Method	scala/collection/SeqLike$class.findLastIndexOf:(Lscala/collection/SeqLike;Lscala/Function1;)I
Asciz	toString;
Asciz	(Lscala/collection/SeqLike;)Ljava/lang/String;;
NameAndType	toString:(Lscala/collection/SeqLike;)Ljava/lang/String;
Method	scala/collection/SeqLike$class.toString:(Lscala/collection/SeqLike;)Ljava/lang/String;
Asciz	equals;
Asciz	(Lscala/collection/SeqLike;Ljava/lang/Object;)Z;
NameAndType	equals:(Lscala/collection/SeqLike;Ljava/lang/Object;)Z
Method	scala/collection/SeqLike$class.equals:(Lscala/collection/SeqLike;Ljava/lang/Object;)Z
Asciz	hashCode;
Asciz	(Lscala/collection/SeqLike;)I;
NameAndType	hashCode:(Lscala/collection/SeqLike;)I
Method	scala/collection/SeqLike$class.hashCode:(Lscala/collection/SeqLike;)I
Asciz	indices;
Asciz	()Lscala/collection/immutable/Range;;
Asciz	(Lscala/collection/SeqLike;)Lscala/collection/immutable/Range;;
NameAndType	indices:(Lscala/collection/SeqLike;)Lscala/collection/immutable/Range;
Method	scala/collection/SeqLike$class.indices:(Lscala/collection/SeqLike;)Lscala/collection/immutable/Range;
Asciz	toSeq;
Asciz	(Lscala/collection/SeqLike;)Lscala/collection/Seq;;
NameAndType	toSeq:(Lscala/collection/SeqLike;)Lscala/collection/Seq;
Method	scala/collection/SeqLike$class.toSeq:(Lscala/collection/SeqLike;)Lscala/collection/Seq;
Asciz	sortBy;
Asciz	(Lscala/Function1;Lscala/math/Ordering;)Ljava/lang/Object;;
Asciz	(Lscala/collection/SeqLike;Lscala/Function1;Lscala/math/Ordering;)Ljava/lang/Object;;
NameAndType	sortBy:(Lscala/collection/SeqLike;Lscala/Function1;Lscala/math/Ordering;)Ljava/lang/Object;
Method	scala/collection/SeqLike$class.sortBy:(Lscala/collection/SeqLike;Lscala/Function1;Lscala/math/Ordering;)Ljava/lang/Object;
Asciz	ord;
Asciz	sortWith;
Asciz	(Lscala/collection/SeqLike;Lscala/math/Ordering;)Ljava/lang/Object;;
NameAndType	sortWith:(Lscala/collection/SeqLike;Lscala/math/Ordering;)Ljava/lang/Object;
Method	scala/collection/SeqLike$class.sortWith:(Lscala/collection/SeqLike;Lscala/math/Ordering;)Ljava/lang/Object;
Asciz	(Lscala/Function2;)Ljava/lang/Object;;
Asciz	(Lscala/collection/SeqLike;Lscala/Function2;)Ljava/lang/Object;;
NameAndType	sortWith:(Lscala/collection/SeqLike;Lscala/Function2;)Ljava/lang/Object;
Method	scala/collection/SeqLike$class.sortWith:(Lscala/collection/SeqLike;Lscala/Function2;)Ljava/lang/Object;
Asciz	lt;
Asciz	padTo;
Asciz	(ILjava/lang/Object;Lscala/collection/generic/CanBuildFrom;)Ljava/lang/Object;;
Asciz	(Lscala/collection/SeqLike;ILjava/lang/Object;Lscala/collection/generic/CanBuildFrom;)Ljava/lang/Object;;
NameAndType	padTo:(Lscala/collection/SeqLike;ILjava/lang/Object;Lscala/collection/generic/CanBuildFrom;)Ljava/lang/Object;
Method	scala/collection/SeqLike$class.padTo:(Lscala/collection/SeqLike;ILjava/lang/Object;Lscala/collection/generic/CanBuildFrom;)Ljava/lang/Object;
Asciz	len;
Asciz	elem;
Asciz	$colon$plus;
Asciz	(Ljava/lang/Object;Lscala/collection/generic/CanBuildFrom;)Ljava/lang/Object;;
Asciz	(Lscala/collection/SeqLike;Ljava/lang/Object;Lscala/collection/generic/CanBuildFrom;)Ljava/lang/Object;;
NameAndType	$colon$plus:(Lscala/collection/SeqLike;Ljava/lang/Object;Lscala/collection/generic/CanBuildFrom;)Ljava/lang/Object;
Method	scala/collection/SeqLike$class.$colon$plus:(Lscala/collection/SeqLike;Ljava/lang/Object;Lscala/collection/generic/CanBuildFrom;)Ljava/lang/Object;
Asciz	$plus$colon;
NameAndType	$plus$colon:(Lscala/collection/SeqLike;Ljava/lang/Object;Lscala/collection/generic/CanBuildFrom;)Ljava/lang/Object;
Method	scala/collection/SeqLike$class.$plus$colon:(Lscala/collection/SeqLike;Ljava/lang/Object;Lscala/collection/generic/CanBuildFrom;)Ljava/lang/Object;
Asciz	updated;
NameAndType	updated:(Lscala/collection/SeqLike;ILjava/lang/Object;Lscala/collection/generic/CanBuildFrom;)Ljava/lang/Object;
Method	scala/collection/SeqLike$class.updated:(Lscala/collection/SeqLike;ILjava/lang/Object;Lscala/collection/generic/CanBuildFrom;)Ljava/lang/Object;
Asciz	index;
Asciz	patch;
Asciz	(ILscala/collection/Seq;ILscala/collection/generic/CanBuildFrom;)Ljava/lang/Object;;
Asciz	(Lscala/collection/SeqLike;ILscala/collection/Seq;ILscala/collection/generic/CanBuildFrom;)Ljava/lang/Object;;
NameAndType	patch:(Lscala/collection/SeqLike;ILscala/collection/Seq;ILscala/collection/generic/CanBuildFrom;)Ljava/lang/Object;
Method	scala/collection/SeqLike$class.patch:(Lscala/collection/SeqLike;ILscala/collection/Seq;ILscala/collection/generic/CanBuildFrom;)Ljava/lang/Object;
Asciz	replaced;
Asciz	removeDuplicates;
NameAndType	removeDuplicates:(Lscala/collection/SeqLike;)Ljava/lang/Object;
Method	scala/collection/SeqLike$class.removeDuplicates:(Lscala/collection/SeqLike;)Ljava/lang/Object;
Asciz	intersect;
Asciz	(Lscala/collection/Seq;)Ljava/lang/Object;;
Asciz	(Lscala/collection/SeqLike;Lscala/collection/Seq;)Ljava/lang/Object;;
NameAndType	intersect:(Lscala/collection/SeqLike;Lscala/collection/Seq;)Ljava/lang/Object;
Method	scala/collection/SeqLike$class.intersect:(Lscala/collection/SeqLike;Lscala/collection/Seq;)Ljava/lang/Object;
Asciz	diff;
NameAndType	diff:(Lscala/collection/SeqLike;Lscala/collection/Seq;)Ljava/lang/Object;
Method	scala/collection/SeqLike$class.diff:(Lscala/collection/SeqLike;Lscala/collection/Seq;)Ljava/lang/Object;
Asciz	union;
Asciz	(Lscala/collection/Seq;Lscala/collection/generic/CanBuildFrom;)Ljava/lang/Object;;
Asciz	(Lscala/collection/SeqLike;Lscala/collection/Seq;Lscala/collection/generic/CanBuildFrom;)Ljava/lang/Object;;
NameAndType	union:(Lscala/collection/SeqLike;Lscala/collection/Seq;Lscala/collection/generic/CanBuildFrom;)Ljava/lang/Object;
Method	scala/collection/SeqLike$class.union:(Lscala/collection/SeqLike;Lscala/collection/Seq;Lscala/collection/generic/CanBuildFrom;)Ljava/lang/Object;
Asciz	contains;
NameAndType	contains:(Lscala/collection/SeqLike;Ljava/lang/Object;)Z
Method	scala/collection/SeqLike$class.contains:(Lscala/collection/SeqLike;Ljava/lang/Object;)Z
Asciz	lastIndexOfSlice;
Asciz	(Lscala/collection/Seq;I)I;
Asciz	(Lscala/collection/SeqLike;Lscala/collection/Seq;I)I;
NameAndType	lastIndexOfSlice:(Lscala/collection/SeqLike;Lscala/collection/Seq;I)I
Method	scala/collection/SeqLike$class.lastIndexOfSlice:(Lscala/collection/SeqLike;Lscala/collection/Seq;I)I
Asciz	fromIndex;
Asciz	(Lscala/collection/Seq;)I;
Asciz	(Lscala/collection/SeqLike;Lscala/collection/Seq;)I;
NameAndType	lastIndexOfSlice:(Lscala/collection/SeqLike;Lscala/collection/Seq;)I
Method	scala/collection/SeqLike$class.lastIndexOfSlice:(Lscala/collection/SeqLike;Lscala/collection/Seq;)I
Asciz	indexOfSlice;
NameAndType	indexOfSlice:(Lscala/collection/SeqLike;Lscala/collection/Seq;I)I
Method	scala/collection/SeqLike$class.indexOfSlice:(Lscala/collection/SeqLike;Lscala/collection/Seq;I)I
NameAndType	indexOfSlice:(Lscala/collection/SeqLike;Lscala/collection/Seq;)I
Method	scala/collection/SeqLike$class.indexOfSlice:(Lscala/collection/SeqLike;Lscala/collection/Seq;)I
Asciz	startsWith;
NameAndType	startsWith:(Lscala/collection/SeqLike;Lscala/collection/Seq;)Z
Method	scala/collection/SeqLike$class.startsWith:(Lscala/collection/SeqLike;Lscala/collection/Seq;)Z
Asciz	reversedElements;
Asciz	(Lscala/collection/SeqLike;)Lscala/collection/Iterator;;
NameAndType	reversedElements:(Lscala/collection/SeqLike;)Lscala/collection/Iterator;
Method	scala/collection/SeqLike$class.reversedElements:(Lscala/collection/SeqLike;)Lscala/collection/Iterator;
Asciz	reverseMap;
Asciz	(Lscala/collection/SeqLike;Lscala/Function1;Lscala/collection/generic/CanBuildFrom;)Ljava/lang/Object;;
NameAndType	reverseMap:(Lscala/collection/SeqLike;Lscala/Function1;Lscala/collection/generic/CanBuildFrom;)Ljava/lang/Object;
Method	scala/collection/SeqLike$class.reverseMap:(Lscala/collection/SeqLike;Lscala/Function1;Lscala/collection/generic/CanBuildFrom;)Ljava/lang/Object;
Asciz	lastIndexWhere;
NameAndType	lastIndexWhere:(Lscala/collection/SeqLike;Lscala/Function1;)I
Method	scala/collection/SeqLike$class.lastIndexWhere:(Lscala/collection/SeqLike;Lscala/Function1;)I
Asciz	lastIndexOf;
Asciz	(Ljava/lang/Object;I)I;
Asciz	(Lscala/collection/SeqLike;Ljava/lang/Object;I)I;
NameAndType	lastIndexOf:(Lscala/collection/SeqLike;Ljava/lang/Object;I)I
Method	scala/collection/SeqLike$class.lastIndexOf:(Lscala/collection/SeqLike;Ljava/lang/Object;I)I
Asciz	(Lscala/collection/SeqLike;Ljava/lang/Object;)I;
NameAndType	lastIndexOf:(Lscala/collection/SeqLike;Ljava/lang/Object;)I
Method	scala/collection/SeqLike$class.lastIndexOf:(Lscala/collection/SeqLike;Ljava/lang/Object;)I
Asciz	indexOf;
NameAndType	indexOf:(Lscala/collection/SeqLike;Ljava/lang/Object;I)I
Method	scala/collection/SeqLike$class.indexOf:(Lscala/collection/SeqLike;Ljava/lang/Object;I)I
NameAndType	indexOf:(Lscala/collection/SeqLike;Ljava/lang/Object;)I
Method	scala/collection/SeqLike$class.indexOf:(Lscala/collection/SeqLike;Ljava/lang/Object;)I
Asciz	findIndexOf;
NameAndType	findIndexOf:(Lscala/collection/SeqLike;Lscala/Function1;)I
Method	scala/collection/SeqLike$class.findIndexOf:(Lscala/collection/SeqLike;Lscala/Function1;)I
Asciz	indexWhere;
NameAndType	indexWhere:(Lscala/collection/SeqLike;Lscala/Function1;)I
Method	scala/collection/SeqLike$class.indexWhere:(Lscala/collection/SeqLike;Lscala/Function1;)I
Asciz	prefixLength;
NameAndType	prefixLength:(Lscala/collection/SeqLike;Lscala/Function1;)I
Method	scala/collection/SeqLike$class.prefixLength:(Lscala/collection/SeqLike;Lscala/Function1;)I
Asciz	(Lscala/collection/SeqLike;I)Z;
NameAndType	isDefinedAt:(Lscala/collection/SeqLike;I)Z
Method	scala/collection/SeqLike$class.isDefinedAt:(Lscala/collection/SeqLike;I)Z
Asciz	size;
NameAndType	size:(Lscala/collection/SeqLike;)I
Method	scala/collection/SeqLike$class.size:(Lscala/collection/SeqLike;)I
Asciz	endsWith;
Asciz	(Lscala/collection/IndexedSeqLike;Lscala/collection/Seq;)Z;
NameAndType	endsWith:(Lscala/collection/IndexedSeqLike;Lscala/collection/Seq;)Z
Method	scala/collection/IndexedSeqLike$class.endsWith:(Lscala/collection/IndexedSeqLike;Lscala/collection/Seq;)Z
Asciz	(Lscala/collection/Seq;I)Z;
Asciz	(Lscala/collection/IndexedSeqLike;Lscala/collection/Seq;I)Z;
NameAndType	startsWith:(Lscala/collection/IndexedSeqLike;Lscala/collection/Seq;I)Z
Method	scala/collection/IndexedSeqLike$class.startsWith:(Lscala/collection/IndexedSeqLike;Lscala/collection/Seq;I)Z
Asciz	offset;
Asciz	reverseIterator;
Asciz	(Lscala/collection/IndexedSeqLike;)Lscala/collection/Iterator;;
NameAndType	reverseIterator:(Lscala/collection/IndexedSeqLike;)Lscala/collection/Iterator;
Method	scala/collection/IndexedSeqLike$class.reverseIterator:(Lscala/collection/IndexedSeqLike;)Lscala/collection/Iterator;
Asciz	reverse;
Asciz	(Lscala/collection/IndexedSeqLike;)Ljava/lang/Object;;
NameAndType	reverse:(Lscala/collection/IndexedSeqLike;)Ljava/lang/Object;
Method	scala/collection/IndexedSeqLike$class.reverse:(Lscala/collection/IndexedSeqLike;)Ljava/lang/Object;
Asciz	(Lscala/Function1;I)I;
Asciz	(Lscala/collection/IndexedSeqLike;Lscala/Function1;I)I;
NameAndType	lastIndexWhere:(Lscala/collection/IndexedSeqLike;Lscala/Function1;I)I
Method	scala/collection/IndexedSeqLike$class.lastIndexWhere:(Lscala/collection/IndexedSeqLike;Lscala/Function1;I)I
NameAndType	indexWhere:(Lscala/collection/IndexedSeqLike;Lscala/Function1;I)I
Method	scala/collection/IndexedSeqLike$class.indexWhere:(Lscala/collection/IndexedSeqLike;Lscala/Function1;I)I
Asciz	segmentLength;
NameAndType	segmentLength:(Lscala/collection/IndexedSeqLike;Lscala/Function1;I)I
Method	scala/collection/IndexedSeqLike$class.segmentLength:(Lscala/collection/IndexedSeqLike;Lscala/Function1;I)I
Asciz	lengthCompare;
Asciz	(I)I;
Asciz	(Lscala/collection/IndexedSeqLike;I)I;
NameAndType	lengthCompare:(Lscala/collection/IndexedSeqLike;I)I
Method	scala/collection/IndexedSeqLike$class.lengthCompare:(Lscala/collection/IndexedSeqLike;I)I
Asciz	(Ljava/lang/Object;II)V;
Asciz	(Lscala/collection/IndexedSeqLike;Ljava/lang/Object;II)V;
NameAndType	copyToArray:(Lscala/collection/IndexedSeqLike;Ljava/lang/Object;II)V
Method	scala/collection/IndexedSeqLike$class.copyToArray:(Lscala/collection/IndexedSeqLike;Ljava/lang/Object;II)V
Asciz	sameElements;
Asciz	(Lscala/collection/Iterable;)Z;
Asciz	(Lscala/collection/IndexedSeqLike;Lscala/collection/Iterable;)Z;
NameAndType	sameElements:(Lscala/collection/IndexedSeqLike;Lscala/collection/Iterable;)Z
Method	scala/collection/IndexedSeqLike$class.sameElements:(Lscala/collection/IndexedSeqLike;Lscala/collection/Iterable;)Z
Asciz	span;
Asciz	(Lscala/collection/IndexedSeqLike;Lscala/Function1;)Lscala/Tuple2;;
NameAndType	span:(Lscala/collection/IndexedSeqLike;Lscala/Function1;)Lscala/Tuple2;
Method	scala/collection/IndexedSeqLike$class.span:(Lscala/collection/IndexedSeqLike;Lscala/Function1;)Lscala/Tuple2;
Asciz	dropWhile;
Asciz	(Lscala/collection/IndexedSeqLike;Lscala/Function1;)Ljava/lang/Object;;
NameAndType	dropWhile:(Lscala/collection/IndexedSeqLike;Lscala/Function1;)Ljava/lang/Object;
Method	scala/collection/IndexedSeqLike$class.dropWhile:(Lscala/collection/IndexedSeqLike;Lscala/Function1;)Ljava/lang/Object;
Asciz	takeWhile;
NameAndType	takeWhile:(Lscala/collection/IndexedSeqLike;Lscala/Function1;)Ljava/lang/Object;
Method	scala/collection/IndexedSeqLike$class.takeWhile:(Lscala/collection/IndexedSeqLike;Lscala/Function1;)Ljava/lang/Object;
Asciz	splitAt;
Asciz	(I)Lscala/Tuple2;;
Asciz	(Lscala/collection/IndexedSeqLike;I)Lscala/Tuple2;;
NameAndType	splitAt:(Lscala/collection/IndexedSeqLike;I)Lscala/Tuple2;
Method	scala/collection/IndexedSeqLike$class.splitAt:(Lscala/collection/IndexedSeqLike;I)Lscala/Tuple2;
Asciz	n;
Asciz	dropRight;
Asciz	(Lscala/collection/IndexedSeqLike;I)Ljava/lang/Object;;
NameAndType	dropRight:(Lscala/collection/IndexedSeqLike;I)Ljava/lang/Object;
Method	scala/collection/IndexedSeqLike$class.dropRight:(Lscala/collection/IndexedSeqLike;I)Ljava/lang/Object;
Asciz	takeRight;
NameAndType	takeRight:(Lscala/collection/IndexedSeqLike;I)Ljava/lang/Object;
Method	scala/collection/IndexedSeqLike$class.takeRight:(Lscala/collection/IndexedSeqLike;I)Ljava/lang/Object;
Asciz	drop;
NameAndType	drop:(Lscala/collection/IndexedSeqLike;I)Ljava/lang/Object;
Method	scala/collection/IndexedSeqLike$class.drop:(Lscala/collection/IndexedSeqLike;I)Ljava/lang/Object;
Asciz	take;
NameAndType	take:(Lscala/collection/IndexedSeqLike;I)Ljava/lang/Object;
Method	scala/collection/IndexedSeqLike$class.take:(Lscala/collection/IndexedSeqLike;I)Ljava/lang/Object;
Asciz	init;
NameAndType	init:(Lscala/collection/IndexedSeqLike;)Ljava/lang/Object;
Method	scala/collection/IndexedSeqLike$class.init:(Lscala/collection/IndexedSeqLike;)Ljava/lang/Object;
Asciz	last;
NameAndType	last:(Lscala/collection/IndexedSeqLike;)Ljava/lang/Object;
Method	scala/collection/IndexedSeqLike$class.last:(Lscala/collection/IndexedSeqLike;)Ljava/lang/Object;
Asciz	tail;
NameAndType	tail:(Lscala/collection/IndexedSeqLike;)Ljava/lang/Object;
Method	scala/collection/IndexedSeqLike$class.tail:(Lscala/collection/IndexedSeqLike;)Ljava/lang/Object;
Asciz	head;
NameAndType	head:(Lscala/collection/IndexedSeqLike;)Ljava/lang/Object;
Method	scala/collection/IndexedSeqLike$class.head:(Lscala/collection/IndexedSeqLike;)Ljava/lang/Object;
Asciz	slice;
Asciz	(II)Ljava/lang/Object;;
Asciz	(Lscala/collection/IndexedSeqLike;II)Ljava/lang/Object;;
NameAndType	slice:(Lscala/collection/IndexedSeqLike;II)Ljava/lang/Object;
Method	scala/collection/IndexedSeqLike$class.slice:(Lscala/collection/IndexedSeqLike;II)Ljava/lang/Object;
Asciz	zipWithIndex;
Asciz	(Lscala/collection/generic/CanBuildFrom;)Ljava/lang/Object;;
Asciz	(Lscala/collection/IndexedSeqLike;Lscala/collection/generic/CanBuildFrom;)Ljava/lang/Object;;
NameAndType	zipWithIndex:(Lscala/collection/IndexedSeqLike;Lscala/collection/generic/CanBuildFrom;)Ljava/lang/Object;
Method	scala/collection/IndexedSeqLike$class.zipWithIndex:(Lscala/collection/IndexedSeqLike;Lscala/collection/generic/CanBuildFrom;)Ljava/lang/Object;
Asciz	zip;
Asciz	(Lscala/collection/Iterable;Lscala/collection/generic/CanBuildFrom;)Ljava/lang/Object;;
Asciz	(Lscala/collection/IndexedSeqLike;Lscala/collection/Iterable;Lscala/collection/generic/CanBuildFrom;)Ljava/lang/Object;;
NameAndType	zip:(Lscala/collection/IndexedSeqLike;Lscala/collection/Iterable;Lscala/collection/generic/CanBuildFrom;)Ljava/lang/Object;
Method	scala/collection/IndexedSeqLike$class.zip:(Lscala/collection/IndexedSeqLike;Lscala/collection/Iterable;Lscala/collection/generic/CanBuildFrom;)Ljava/lang/Object;
Asciz	reduceRight;
Asciz	(Lscala/collection/IndexedSeqLike;Lscala/Function2;)Ljava/lang/Object;;
NameAndType	reduceRight:(Lscala/collection/IndexedSeqLike;Lscala/Function2;)Ljava/lang/Object;
Method	scala/collection/IndexedSeqLike$class.reduceRight:(Lscala/collection/IndexedSeqLike;Lscala/Function2;)Ljava/lang/Object;
Asciz	reduceLeft;
NameAndType	reduceLeft:(Lscala/collection/IndexedSeqLike;Lscala/Function2;)Ljava/lang/Object;
Method	scala/collection/IndexedSeqLike$class.reduceLeft:(Lscala/collection/IndexedSeqLike;Lscala/Function2;)Ljava/lang/Object;
Asciz	foldRight;
Asciz	(Lscala/collection/IndexedSeqLike;Ljava/lang/Object;Lscala/Function2;)Ljava/lang/Object;;
NameAndType	foldRight:(Lscala/collection/IndexedSeqLike;Ljava/lang/Object;Lscala/Function2;)Ljava/lang/Object;
Method	scala/collection/IndexedSeqLike$class.foldRight:(Lscala/collection/IndexedSeqLike;Ljava/lang/Object;Lscala/Function2;)Ljava/lang/Object;
Asciz	foldLeft;
NameAndType	foldLeft:(Lscala/collection/IndexedSeqLike;Ljava/lang/Object;Lscala/Function2;)Ljava/lang/Object;
Method	scala/collection/IndexedSeqLike$class.foldLeft:(Lscala/collection/IndexedSeqLike;Ljava/lang/Object;Lscala/Function2;)Ljava/lang/Object;
Asciz	find;
Asciz	(Lscala/Function1;)Lscala/Option;;
Asciz	(Lscala/collection/IndexedSeqLike;Lscala/Function1;)Lscala/Option;;
NameAndType	find:(Lscala/collection/IndexedSeqLike;Lscala/Function1;)Lscala/Option;
Method	scala/collection/IndexedSeqLike$class.find:(Lscala/collection/IndexedSeqLike;Lscala/Function1;)Lscala/Option;
Asciz	exists;
Asciz	(Lscala/Function1;)Z;
Asciz	(Lscala/collection/IndexedSeqLike;Lscala/Function1;)Z;
NameAndType	exists:(Lscala/collection/IndexedSeqLike;Lscala/Function1;)Z
Method	scala/collection/IndexedSeqLike$class.exists:(Lscala/collection/IndexedSeqLike;Lscala/Function1;)Z
Asciz	forall;
NameAndType	forall:(Lscala/collection/IndexedSeqLike;Lscala/Function1;)Z
Method	scala/collection/IndexedSeqLike$class.forall:(Lscala/collection/IndexedSeqLike;Lscala/Function1;)Z
Asciz	foreach;
Asciz	(Lscala/collection/IndexedSeqLike;Lscala/Function1;)V;
NameAndType	foreach:(Lscala/collection/IndexedSeqLike;Lscala/Function1;)V
Method	scala/collection/IndexedSeqLike$class.foreach:(Lscala/collection/IndexedSeqLike;Lscala/Function1;)V
Asciz	isEmpty;
Asciz	(Lscala/collection/IndexedSeqLike;)Z;
NameAndType	isEmpty:(Lscala/collection/IndexedSeqLike;)Z
Method	scala/collection/IndexedSeqLike$class.isEmpty:(Lscala/collection/IndexedSeqLike;)Z
Asciz	iterator;
NameAndType	iterator:(Lscala/collection/IndexedSeqLike;)Lscala/collection/Iterator;
Method	scala/collection/IndexedSeqLike$class.iterator:(Lscala/collection/IndexedSeqLike;)Lscala/collection/Iterator;
Asciz	scala$collection$IndexedSeqLike$$super$endsWith;
NameAndType	endsWith:(Lscala/collection/SeqLike;Lscala/collection/Seq;)Z
Method	scala/collection/SeqLike$class.endsWith:(Lscala/collection/SeqLike;Lscala/collection/Seq;)Z
Asciz	scala$collection$IndexedSeqLike$$super$sameElements;
Asciz	(Lscala/collection/IterableLike;Lscala/collection/Iterable;)Z;
NameAndType	sameElements:(Lscala/collection/IterableLike;Lscala/collection/Iterable;)Z
Method	scala/collection/IterableLike$class.sameElements:(Lscala/collection/IterableLike;Lscala/collection/Iterable;)Z
Asciz	scala$collection$IndexedSeqLike$$super$init;
NameAndType	init:(Lscala/collection/TraversableLike;)Ljava/lang/Object;
Method	scala/collection/TraversableLike$class.init:(Lscala/collection/TraversableLike;)Ljava/lang/Object;
Asciz	scala$collection$IndexedSeqLike$$super$last;
NameAndType	last:(Lscala/collection/TraversableLike;)Ljava/lang/Object;
Method	scala/collection/TraversableLike$class.last:(Lscala/collection/TraversableLike;)Ljava/lang/Object;
Asciz	scala$collection$IndexedSeqLike$$super$tail;
NameAndType	tail:(Lscala/collection/TraversableLike;)Ljava/lang/Object;
Method	scala/collection/TraversableLike$class.tail:(Lscala/collection/TraversableLike;)Ljava/lang/Object;
Asciz	scala$collection$IndexedSeqLike$$super$head;
NameAndType	head:(Lscala/collection/IterableLike;)Ljava/lang/Object;
Method	scala/collection/IterableLike$class.head:(Lscala/collection/IterableLike;)Ljava/lang/Object;
Asciz	scala$collection$IndexedSeqLike$$super$zip;
Asciz	(Lscala/collection/IterableLike;Lscala/collection/Iterable;Lscala/collection/generic/CanBuildFrom;)Ljava/lang/Object;;
NameAndType	zip:(Lscala/collection/IterableLike;Lscala/collection/Iterable;Lscala/collection/generic/CanBuildFrom;)Ljava/lang/Object;
Method	scala/collection/IterableLike$class.zip:(Lscala/collection/IterableLike;Lscala/collection/Iterable;Lscala/collection/generic/CanBuildFrom;)Ljava/lang/Object;
Asciz	scala$collection$IndexedSeqLike$$super$reduceRight;
Asciz	(Lscala/collection/IterableLike;Lscala/Function2;)Ljava/lang/Object;;
NameAndType	reduceRight:(Lscala/collection/IterableLike;Lscala/Function2;)Ljava/lang/Object;
Method	scala/collection/IterableLike$class.reduceRight:(Lscala/collection/IterableLike;Lscala/Function2;)Ljava/lang/Object;
Asciz	scala$collection$IndexedSeqLike$$super$reduceLeft;
Asciz	(Lscala/collection/TraversableLike;Lscala/Function2;)Ljava/lang/Object;;
NameAndType	reduceLeft:(Lscala/collection/TraversableLike;Lscala/Function2;)Ljava/lang/Object;
Method	scala/collection/TraversableLike$class.reduceLeft:(Lscala/collection/TraversableLike;Lscala/Function2;)Ljava/lang/Object;
Asciz	(Lscala/collection/mutable/IndexedSeqLike;II)Lscala/collection/mutable/IndexedSeqView;;
NameAndType	view:(Lscala/collection/mutable/IndexedSeqLike;II)Lscala/collection/mutable/IndexedSeqView;
Method	scala/collection/mutable/IndexedSeqLike$class.view:(Lscala/collection/mutable/IndexedSeqLike;II)Lscala/collection/mutable/IndexedSeqView;
Asciz	(Lscala/collection/mutable/IndexedSeqLike;)Ljava/lang/Object;;
NameAndType	view:(Lscala/collection/mutable/IndexedSeqLike;)Ljava/lang/Object;
Method	scala/collection/mutable/IndexedSeqLike$class.view:(Lscala/collection/mutable/IndexedSeqLike;)Ljava/lang/Object;
Asciz	companion;
Asciz	()Lscala/collection/generic/GenericCompanion;;
Asciz	(Lscala/collection/mutable/IndexedSeq;)Lscala/collection/generic/GenericCompanion;;
NameAndType	companion:(Lscala/collection/mutable/IndexedSeq;)Lscala/collection/generic/GenericCompanion;
Method	scala/collection/mutable/IndexedSeq$class.companion:(Lscala/collection/mutable/IndexedSeq;)Lscala/collection/generic/GenericCompanion;
Asciz	deepEquals;
Asciz	(Lscala/collection/mutable/ArrayLike;Ljava/lang/Object;)Z;
NameAndType	deepEquals:(Lscala/collection/mutable/ArrayLike;Ljava/lang/Object;)Z
Method	scala/collection/mutable/ArrayLike$class.deepEquals:(Lscala/collection/mutable/ArrayLike;Ljava/lang/Object;)Z
Asciz	deepMkString;
Asciz	(Lscala/collection/mutable/ArrayLike;Ljava/lang/String;)Ljava/lang/String;;
NameAndType	deepMkString:(Lscala/collection/mutable/ArrayLike;Ljava/lang/String;)Ljava/lang/String;
Method	scala/collection/mutable/ArrayLike$class.deepMkString:(Lscala/collection/mutable/ArrayLike;Ljava/lang/String;)Ljava/lang/String;
Asciz	(Lscala/collection/mutable/ArrayLike;Ljava/lang/String;Ljava/lang/String;Ljava/lang/String;)Ljava/lang/String;;
NameAndType	deepMkString:(Lscala/collection/mutable/ArrayLike;Ljava/lang/String;Ljava/lang/String;Ljava/lang/String;)Ljava/lang/String;
Method	scala/collection/mutable/ArrayLike$class.deepMkString:(Lscala/collection/mutable/ArrayLike;Ljava/lang/String;Ljava/lang/String;Ljava/lang/String;)Ljava/lang/String;
Asciz	deepToString;
Asciz	(Lscala/collection/mutable/ArrayLike;)Ljava/lang/String;;
NameAndType	deepToString:(Lscala/collection/mutable/ArrayLike;)Ljava/lang/String;
Method	scala/collection/mutable/ArrayLike$class.deepToString:(Lscala/collection/mutable/ArrayLike;)Ljava/lang/String;
Asciz	deep;
Asciz	(Lscala/collection/mutable/ArrayLike;)Lscala/collection/IndexedSeq;;
NameAndType	deep:(Lscala/collection/mutable/ArrayLike;)Lscala/collection/IndexedSeq;
Method	scala/collection/mutable/ArrayLike$class.deep:(Lscala/collection/mutable/ArrayLike;)Lscala/collection/IndexedSeq;
Asciz	<T:Ljava/lang/Object;>Ljava/lang/Object;Lscala/collection/mutable/IndexedSeq<TT;>;Lscala/collection/mutable/ArrayLike<TT;Lscala/collection/mutable/WrappedArray<TT;>;>;Lscala/ScalaObject;;
Asciz	ScalaSig;
Asciz	InnerClasses;
Asciz	scala/collection/mutable/WrappedArray$ofInt;
class	scala/collection/mutable/WrappedArray$ofInt
Asciz	ofInt;
Asciz	scala/collection/mutable/WrappedArray$ofRef;
class	scala/collection/mutable/WrappedArray$ofRef
Asciz	ofRef;
Asciz	scala/collection/mutable/WrappedArray$ofUnit;
class	scala/collection/mutable/WrappedArray$ofUnit
Asciz	ofUnit;
Asciz	scala/collection/mutable/WrappedArray$ofLong;
class	scala/collection/mutable/WrappedArray$ofLong
Asciz	ofLong;
Asciz	scala/collection/mutable/WrappedArray$ofChar;
class	scala/collection/mutable/WrappedArray$ofChar
Asciz	ofChar;
Asciz	scala/collection/mutable/WrappedArray$ofByte;
class	scala/collection/mutable/WrappedArray$ofByte
Asciz	ofByte;
Asciz	scala/collection/mutable/WrappedArray$$anon$1;
class	scala/collection/mutable/WrappedArray$$anon$1
Asciz	$anon$1;
Asciz	scala/collection/mutable/WrappedArray$ofFloat;
class	scala/collection/mutable/WrappedArray$ofFloat
Asciz	ofFloat;
Asciz	scala/collection/mutable/WrappedArray$ofShort;
class	scala/collection/mutable/WrappedArray$ofShort
Asciz	ofShort;
Asciz	scala/collection/mutable/WrappedArray$ofDouble;
class	scala/collection/mutable/WrappedArray$ofDouble
Asciz	ofDouble;
Asciz	scala/collection/mutable/WrappedArray$ofBoolean;
class	scala/collection/mutable/WrappedArray$ofBoolean
Asciz	ofBoolean;
Asciz	scala/collection/TraversableLike$WithFilter;
class	scala/collection/TraversableLike$WithFilter
Asciz	scala/collection/TraversableLike;
class	scala/collection/TraversableLike
Asciz	WithFilter;
Asciz	scala/collection/mutable/IndexedSeq;
class	scala/collection/mutable/IndexedSeq
Asciz	scala/collection/mutable/ArrayLike;
class	scala/collection/mutable/ArrayLike
Asciz	scala/ScalaObject;
class	scala/ScalaObject

{
public static final scala.collection.generic.CanBuildFrom canBuildFrom(scala.reflect.ClassManifest);
  Signature: (Lscala/reflect/ClassManifest;)Lscala/collection/generic/CanBuildFrom;
  Code:
   Stack=2, Locals=1, Args_size=1
	getstatic	Field scala/collection/mutable/WrappedArray$.MODULE$:Lscala/collection/mutable/WrappedArray$;
	aload_0
	invokevirtual	Method scala/collection/mutable/WrappedArray$.canBuildFrom:(Lscala/reflect/ClassManifest;)Lscala/collection/generic/CanBuildFrom;
	areturn
  Labels:
  Signature: length = 0x2
   00 0E 

public static final scala.collection.mutable.WrappedArray make(java.lang.Object);
  Signature: (Ljava/lang/Object;)Lscala/collection/mutable/WrappedArray;
  Code:
   Stack=2, Locals=1, Args_size=1
	getstatic	Field scala/collection/mutable/WrappedArray$.MODULE$:Lscala/collection/mutable/WrappedArray$;
	aload_0
	invokevirtual	Method scala/collection/mutable/WrappedArray$.make:(Ljava/lang/Object;)Lscala/collection/mutable/WrappedArray;
	areturn
  Labels:
  Signature: length = 0x2
   00 14 

public scala.collection.mutable.WrappedArray();
  Signature: ()V
  Code:
   Stack=1, Locals=1, Args_size=1
	aload_0
	invokespecial	Method java/lang/Object."<init>":()V
	aload_0
	invokestatic	Method scala/collection/TraversableLike$class.$init$:(Lscala/collection/TraversableLike;)V
	aload_0
	invokestatic	Method scala/collection/generic/GenericTraversableTemplate$class.$init$:(Lscala/collection/generic/GenericTraversableTemplate;)V
	aload_0
	invokestatic	Method scala/collection/Traversable$class.$init$:(Lscala/collection/Traversable;)V
	aload_0
	invokestatic	Method scala/collection/mutable/Traversable$class.$init$:(Lscala/collection/mutable/Traversable;)V
	aload_0
	invokestatic	Method scala/collection/IterableLike$class.$init$:(Lscala/collection/IterableLike;)V
	aload_0
	invokestatic	Method scala/collection/Iterable$class.$init$:(Lscala/collection/Iterable;)V
	aload_0
	invokestatic	Method scala/collection/mutable/Iterable$class.$init$:(Lscala/collection/mutable/Iterable;)V
	aload_0
	invokestatic	Method scala/Function1$class.$init$:(Lscala/Function1;)V
	aload_0
	invokestatic	Method scala/PartialFunction$class.$init$:(Lscala/PartialFunction;)V
	aload_0
	invokestatic	Method scala/collection/SeqLike$class.$init$:(Lscala/collection/SeqLike;)V
	aload_0
	invokestatic	Method scala/collection/Seq$class.$init$:(Lscala/collection/Seq;)V
	aload_0
	invokestatic	Method scala/collection/mutable/Seq$class.$init$:(Lscala/collection/mutable/Seq;)V
	aload_0
	invokestatic	Method scala/collection/IndexedSeqLike$class.$init$:(Lscala/collection/IndexedSeqLike;)V
	aload_0
	invokestatic	Method scala/collection/IndexedSeq$class.$init$:(Lscala/collection/IndexedSeq;)V
	aload_0
	invokestatic	Method scala/collection/mutable/IndexedSeqLike$class.$init$:(Lscala/collection/mutable/IndexedSeqLike;)V
	aload_0
	invokestatic	Method scala/collection/mutable/IndexedSeq$class.$init$:(Lscala/collection/mutable/IndexedSeq;)V
	aload_0
	invokestatic	Method scala/collection/mutable/ArrayLike$class.$init$:(Lscala/collection/mutable/ArrayLike;)V
	return
  Labels:
  Signature: length = 0x2
   00 16 

public scala.collection.mutable.IndexedSeq thisCollection();
  Signature: ()Lscala/collection/mutable/IndexedSeq;
  Code:
   Stack=1, Locals=1, Args_size=1
	aload_0
	invokevirtual	Method thisCollection:()Lscala/collection/mutable/WrappedArray;
	areturn
  Labels:

public scala.collection.IndexedSeq thisCollection();
  Signature: ()Lscala/collection/IndexedSeq;
  Code:
   Stack=1, Locals=1, Args_size=1
	aload_0
	invokevirtual	Method thisCollection:()Lscala/collection/mutable/WrappedArray;
	areturn
  Labels:

public scala.collection.Seq thisCollection();
  Signature: ()Lscala/collection/Seq;
  Code:
   Stack=1, Locals=1, Args_size=1
	aload_0
	invokevirtual	Method thisCollection:()Lscala/collection/mutable/WrappedArray;
	areturn
  Labels:

public scala.collection.Iterable thisCollection();
  Signature: ()Lscala/collection/Iterable;
  Code:
   Stack=1, Locals=1, Args_size=1
	aload_0
	invokevirtual	Method thisCollection:()Lscala/collection/mutable/WrappedArray;
	areturn
  Labels:

public scala.collection.Traversable thisCollection();
  Signature: ()Lscala/collection/Traversable;
  Code:
   Stack=1, Locals=1, Args_size=1
	aload_0
	invokevirtual	Method thisCollection:()Lscala/collection/mutable/WrappedArray;
	areturn
  Labels:

public scala.collection.mutable.IndexedSeq toCollection(java.lang.Object);
  Signature: (Ljava/lang/Object;)Lscala/collection/mutable/IndexedSeq;
  Code:
   Stack=2, Locals=2, Args_size=2
	aload_0
	aload_1
	checkcast	class scala/collection/mutable/WrappedArray
	invokevirtual	Method toCollection:(Lscala/collection/mutable/WrappedArray;)Lscala/collection/mutable/WrappedArray;
	areturn
  Labels:
  LocalVariableTable: 
   Start  Length  Slot  Name   Signature
   0      9      0    this       Lscala/collection/mutable/WrappedArray;
   0      9      1    repr       Ljava/lang/Object;


public scala.collection.IndexedSeq toCollection(java.lang.Object);
  Signature: (Ljava/lang/Object;)Lscala/collection/IndexedSeq;
  Code:
   Stack=2, Locals=2, Args_size=2
	aload_0
	aload_1
[...]
  Signature: (Ljava/lang/Object;II)V
  Code:
   Stack=4, Locals=4, Args_size=4
	aload_0
	aload_1
	iload_2
	iload_3
	invokestatic	Method scala/collection/IndexedSeqLike$class.copyToArray:(Lscala/collection/IndexedSeqLike;Ljava/lang/Object;II)V
	return
  Labels:
  LocalVariableTable: 
   Start  Length  Slot  Name   Signature
   0      8      0    this       Lscala/collection/mutable/WrappedArray;
   0      8      1    xs       Ljava/lang/Object;
   0      8      2    start       I
   0      8      3    len       I


public boolean sameElements(scala.collection.Iterable);
  Signature: (Lscala/collection/Iterable;)Z
  Code:
   Stack=2, Locals=2, Args_size=2
	aload_0
	aload_1
	invokestatic	Method scala/collection/IndexedSeqLike$class.sameElements:(Lscala/collection/IndexedSeqLike;Lscala/collection/Iterable;)Z
	ireturn
  Labels:
  LocalVariableTable: 
   Start  Length  Slot  Name   Signature
   0      6      0    this       Lscala/collection/mutable/WrappedArray;
   0      6      1    that       Lscala/collection/Iterable;


public scala.Tuple2 span(scala.Function1);
  Signature: (Lscala/Function1;)Lscala/Tuple2;
  Code:
   Stack=2, Locals=2, Args_size=2
	aload_0
	aload_1
	invokestatic	Method scala/collection/IndexedSeqLike$class.span:(Lscala/collection/IndexedSeqLike;Lscala/Function1;)Lscala/Tuple2;
	areturn
  Labels:
  LocalVariableTable: 
   Start  Length  Slot  Name   Signature
   0      6      0    this       Lscala/collection/mutable/WrappedArray;
   0      6      1    p       Lscala/Function1;


public java.lang.Object dropWhile(scala.Function1);
  Signature: (Lscala/Function1;)Ljava/lang/Object;
  Code:
   Stack=2, Locals=2, Args_size=2
	aload_0
	aload_1
	invokestatic	Method scala/collection/IndexedSeqLike$class.dropWhile:(Lscala/collection/IndexedSeqLike;Lscala/Function1;)Ljava/lang/Object;
	areturn
  Labels:
  LocalVariableTable: 
   Start  Length  Slot  Name   Signature
   0      6      0    this       Lscala/collection/mutable/WrappedArray;
   0      6      1    p       Lscala/Function1;


public java.lang.Object takeWhile(scala.Function1);
  Signature: (Lscala/Function1;)Ljava/lang/Object;
  Code:
   Stack=2, Locals=2, Args_size=2
	aload_0
	aload_1
	invokestatic	Method scala/collection/IndexedSeqLike$class.takeWhile:(Lscala/collection/IndexedSeqLike;Lscala/Function1;)Ljava/lang/Object;
	areturn
  Labels:
  LocalVariableTable: 
   Start  Length  Slot  Name   Signature
   0      6      0    this       Lscala/collection/mutable/WrappedArray;
   0      6      1    p       Lscala/Function1;


public scala.Tuple2 splitAt(int);
  Signature: (I)Lscala/Tuple2;
  Code:
   Stack=2, Locals=2, Args_size=2
	aload_0
	iload_1
	invokestatic	Method scala/collection/IndexedSeqLike$class.splitAt:(Lscala/collection/IndexedSeqLike;I)Lscala/Tuple2;
	areturn
  Labels:
  LocalVariableTable: 
   Start  Length  Slot  Name   Signature
   0      6      0    this       Lscala/collection/mutable/WrappedArray;
   0      6      1    n       I


public java.lang.Object dropRight(int);
  Signature: (I)Ljava/lang/Object;
  Code:
   Stack=2, Locals=2, Args_size=2
	aload_0
	iload_1
	invokestatic	Method scala/collection/IndexedSeqLike$class.dropRight:(Lscala/collection/IndexedSeqLike;I)Ljava/lang/Object;
	areturn
  Labels:
  LocalVariableTable: 
   Start  Length  Slot  Name   Signature
   0      6      0    this       Lscala/collection/mutable/WrappedArray;
   0      6      1    n       I


public java.lang.Object takeRight(int);
  Signature: (I)Ljava/lang/Object;
  Code:
   Stack=2, Locals=2, Args_size=2
	aload_0
	iload_1
	invokestatic	Method scala/collection/IndexedSeqLike$class.takeRight:(Lscala/collection/IndexedSeqLike;I)Ljava/lang/Object;
	areturn
  Labels:
  LocalVariableTable: 
   Start  Length  Slot  Name   Signature
   0      6      0    this       Lscala/collection/mutable/WrappedArray;
   0      6      1    n       I


public java.lang.Object drop(int);
  Signature: (I)Ljava/lang/Object;
  Code:
   Stack=2, Locals=2, Args_size=2
	aload_0
	iload_1
	invokestatic	Method scala/collection/IndexedSeqLike$class.drop:(Lscala/collection/IndexedSeqLike;I)Ljava/lang/Object;
	areturn
  Labels:
  LocalVariableTable: 
   Start  Length  Slot  Name   Signature
   0      6      0    this       Lscala/collection/mutable/WrappedArray;
   0      6      1    n       I


public java.lang.Object take(int);
  Signature: (I)Ljava/lang/Object;
  Code:
   Stack=2, Locals=2, Args_size=2
	aload_0
	iload_1
	invokestatic	Method scala/collection/IndexedSeqLike$class.take:(Lscala/collection/IndexedSeqLike;I)Ljava/lang/Object;
	areturn
  Labels:
  LocalVariableTable: 
   Start  Length  Slot  Name   Signature
   0      6      0    this       Lscala/collection/mutable/WrappedArray;
   0      6      1    n       I


public java.lang.Object init();
  Signature: ()Ljava/lang/Object;
  Code:
   Stack=1, Locals=1, Args_size=1
	aload_0
	invokestatic	Method scala/collection/IndexedSeqLike$class.init:(Lscala/collection/IndexedSeqLike;)Ljava/lang/Object;
	areturn
  Labels:

public java.lang.Object last();
  Signature: ()Ljava/lang/Object;
  Code:
   Stack=1, Locals=1, Args_size=1
	aload_0
	invokestatic	Method scala/collection/IndexedSeqLike$class.last:(Lscala/collection/IndexedSeqLike;)Ljava/lang/Object;
	areturn
  Labels:

public java.lang.Object tail();
  Signature: ()Ljava/lang/Object;
  Code:
   Stack=1, Locals=1, Args_size=1
	aload_0
	invokestatic	Method scala/collection/IndexedSeqLike$class.tail:(Lscala/collection/IndexedSeqLike;)Ljava/lang/Object;
	areturn
  Labels:

public java.lang.Object head();
  Signature: ()Ljava/lang/Object;
  Code:
   Stack=1, Locals=1, Args_size=1
	aload_0
	invokestatic	Method scala/collection/IndexedSeqLike$class.head:(Lscala/collection/IndexedSeqLike;)Ljava/lang/Object;
	areturn
  Labels:

public java.lang.Object slice(int, int);
  Signature: (II)Ljava/lang/Object;
  Code:
   Stack=3, Locals=3, Args_size=3
	aload_0
	iload_1
	iload_2
	invokestatic	Method scala/collection/IndexedSeqLike$class.slice:(Lscala/collection/IndexedSeqLike;II)Ljava/lang/Object;
	areturn
  Labels:
  LocalVariableTable: 
   Start  Length  Slot  Name   Signature
   0      7      0    this       Lscala/collection/mutable/WrappedArray;
   0      7      1    from       I
   0      7      2    until       I


public java.lang.Object zipWithIndex(scala.collection.generic.CanBuildFrom);
  Signature: (Lscala/collection/generic/CanBuildFrom;)Ljava/lang/Object;
  Code:
   Stack=2, Locals=2, Args_size=2
	aload_0
	aload_1
	invokestatic	Method scala/collection/IndexedSeqLike$class.zipWithIndex:(Lscala/collection/IndexedSeqLike;Lscala/collection/generic/CanBuildFrom;)Ljava/lang/Object;
	areturn
  Labels:
  LocalVariableTable: 
   Start  Length  Slot  Name   Signature
   0      6      0    this       Lscala/collection/mutable/WrappedArray;
   0      6      1    bf       Lscala/collection/generic/CanBuildFrom;


public java.lang.Object zip(scala.collection.Iterable, scala.collection.generic.CanBuildFrom);
  Signature: (Lscala/collection/Iterable;Lscala/collection/generic/CanBuildFrom;)Ljava/lang/Object;
  Code:
   Stack=3, Locals=3, Args_size=3
	aload_0
	aload_1
	aload_2
	invokestatic	Method scala/collection/IndexedSeqLike$class.zip:(Lscala/collection/IndexedSeqLike;Lscala/collection/Iterable;Lscala/collection/generic/CanBuildFrom;)Ljava/lang/Object;
	areturn
  Labels:
  LocalVariableTable: 
   Start  Length  Slot  Name   Signature
   0      7      0    this       Lscala/collection/mutable/WrappedArray;
   0      7      1    that       Lscala/collection/Iterable;
   0      7      2    bf       Lscala/collection/generic/CanBuildFrom;


public java.lang.Object reduceRight(scala.Function2);
  Signature: (Lscala/Function2;)Ljava/lang/Object;
  Code:
   Stack=2, Locals=2, Args_size=2
	aload_0
	aload_1
	invokestatic	Method scala/collection/IndexedSeqLike$class.reduceRight:(Lscala/collection/IndexedSeqLike;Lscala/Function2;)Ljava/lang/Object;
	areturn
  Labels:
  LocalVariableTable: 
   Start  Length  Slot  Name   Signature
   0      6      0    this       Lscala/collection/mutable/WrappedArray;
   0      6      1    op       Lscala/Function2;


public java.lang.Object reduceLeft(scala.Function2);
  Signature: (Lscala/Function2;)Ljava/lang/Object;
  Code:
   Stack=2, Locals=2, Args_size=2
	aload_0
	aload_1
	invokestatic	Method scala/collection/IndexedSeqLike$class.reduceLeft:(Lscala/collection/IndexedSeqLike;Lscala/Function2;)Ljava/lang/Object;
	areturn
  Labels:
  LocalVariableTable: 
   Start  Length  Slot  Name   Signature
   0      6      0    this       Lscala/collection/mutable/WrappedArray;
   0      6      1    op       Lscala/Function2;


public java.lang.Object foldRight(java.lang.Object, scala.Function2);
  Signature: (Ljava/lang/Object;Lscala/Function2;)Ljava/lang/Object;
  Code:
   Stack=3, Locals=3, Args_size=3
	aload_0
	aload_1
	aload_2
	invokestatic	Method scala/collection/IndexedSeqLike$class.foldRight:(Lscala/collection/IndexedSeqLike;Ljava/lang/Object;Lscala/Function2;)Ljava/lang/Object;
	areturn
  Labels:
  LocalVariableTable: 
   Start  Length  Slot  Name   Signature
   0      7      0    this       Lscala/collection/mutable/WrappedArray;
   0      7      1    z       Ljava/lang/Object;
   0      7      2    op       Lscala/Function2;


public java.lang.Object foldLeft(java.lang.Object, scala.Function2);
  Signature: (Ljava/lang/Object;Lscala/Function2;)Ljava/lang/Object;
  Code:
   Stack=3, Locals=3, Args_size=3
	aload_0
	aload_1
	aload_2
	invokestatic	Method scala/collection/IndexedSeqLike$class.foldLeft:(Lscala/collection/IndexedSeqLike;Ljava/lang/Object;Lscala/Function2;)Ljava/lang/Object;
	areturn
  Labels:
  LocalVariableTable: 
   Start  Length  Slot  Name   Signature
   0      7      0    this       Lscala/collection/mutable/WrappedArray;
   0      7      1    z       Ljava/lang/Object;
   0      7      2    op       Lscala/Function2;


public scala.Option find(scala.Function1);
  Signature: (Lscala/Function1;)Lscala/Option;
  Code:
   Stack=2, Locals=2, Args_size=2
	aload_0
	aload_1
	invokestatic	Method scala/collection/IndexedSeqLike$class.find:(Lscala/collection/IndexedSeqLike;Lscala/Function1;)Lscala/Option;
	areturn
  Labels:
  LocalVariableTable: 
   Start  Length  Slot  Name   Signature
   0      6      0    this       Lscala/collection/mutable/WrappedArray;
   0      6      1    p       Lscala/Function1;


public boolean exists(scala.Function1);
  Signature: (Lscala/Function1;)Z
  Code:
   Stack=2, Locals=2, Args_size=2
	aload_0
	aload_1
	invokestatic	Method scala/collection/IndexedSeqLike$class.exists:(Lscala/collection/IndexedSeqLike;Lscala/Function1;)Z
	ireturn
  Labels:
  LocalVariableTable: 
   Start  Length  Slot  Name   Signature
   0      6      0    this       Lscala/collection/mutable/WrappedArray;
   0      6      1    p       Lscala/Function1;


public boolean forall(scala.Function1);
  Signature: (Lscala/Function1;)Z
  Code:
   Stack=2, Locals=2, Args_size=2
	aload_0
	aload_1
	invokestatic	Method scala/collection/IndexedSeqLike$class.forall:(Lscala/collection/IndexedSeqLike;Lscala/Function1;)Z
	ireturn
  Labels:
  LocalVariableTable: 
   Start  Length  Slot  Name   Signature
   0      6      0    this       Lscala/collection/mutable/WrappedArray;
   0      6      1    p       Lscala/Function1;


public void foreach(scala.Function1);
  Signature: (Lscala/Function1;)V
  Code:
   Stack=2, Locals=2, Args_size=2
	aload_0
	aload_1
	invokestatic	Method scala/collection/IndexedSeqLike$class.foreach:(Lscala/collection/IndexedSeqLike;Lscala/Function1;)V
	return
  Labels:
  LocalVariableTable: 
   Start  Length  Slot  Name   Signature
   0      6      0    this       Lscala/collection/mutable/WrappedArray;
   0      6      1    f       Lscala/Function1;


public boolean isEmpty();
  Signature: ()Z
  Code:
   Stack=1, Locals=1, Args_size=1
	aload_0
	invokestatic	Method scala/collection/IndexedSeqLike$class.isEmpty:(Lscala/collection/IndexedSeqLike;)Z
	ireturn
  Labels:

public scala.collection.Iterator iterator();
  Signature: ()Lscala/collection/Iterator;
  Code:
   Stack=1, Locals=1, Args_size=1
	aload_0
	invokestatic	Method scala/collection/IndexedSeqLike$class.iterator:(Lscala/collection/IndexedSeqLike;)Lscala/collection/Iterator;
	areturn
  Labels:

public final boolean scala$collection$IndexedSeqLike$$super$endsWith(scala.collection.Seq);
  Signature: (Lscala/collection/Seq;)Z
  Code:
   Stack=2, Locals=2, Args_size=2
	aload_0
	aload_1
	invokestatic	Method scala/collection/SeqLike$class.endsWith:(Lscala/collection/SeqLike;Lscala/collection/Seq;)Z
	ireturn
  Labels:
  LocalVariableTable: 
   Start  Length  Slot  Name   Signature
   0      6      0    this       Lscala/collection/mutable/WrappedArray;
   0      6      1    that       Lscala/collection/Seq;


public final boolean scala$collection$IndexedSeqLike$$super$sameElements(scala.collection.Iterable);
  Signature: (Lscala/collection/Iterable;)Z
  Code:
   Stack=2, Locals=2, Args_size=2
	aload_0
	aload_1
	invokestatic	Method scala/collection/IterableLike$class.sameElements:(Lscala/collection/IterableLike;Lscala/collection/Iterable;)Z
	ireturn
  Labels:
  LocalVariableTable: 
   Start  Length  Slot  Name   Signature
   0      6      0    this       Lscala/collection/mutable/WrappedArray;
   0      6      1    that       Lscala/collection/Iterable;


public final java.lang.Object scala$collection$IndexedSeqLike$$super$init();
  Signature: ()Ljava/lang/Object;
  Code:
   Stack=1, Locals=1, Args_size=1
	aload_0
	invokestatic	Method scala/collection/TraversableLike$class.init:(Lscala/collection/TraversableLike;)Ljava/lang/Object;
	areturn
  Labels:

public final java.lang.Object scala$collection$IndexedSeqLike$$super$last();
  Signature: ()Ljava/lang/Object;
  Code:
   Stack=1, Locals=1, Args_size=1
	aload_0
	invokestatic	Method scala/collection/TraversableLike$class.last:(Lscala/collection/TraversableLike;)Ljava/lang/Object;
	areturn
  Labels:

public final java.lang.Object scala$collection$IndexedSeqLike$$super$tail();
  Signature: ()Ljava/lang/Object;
  Code:
   Stack=1, Locals=1, Args_size=1
	aload_0
	invokestatic	Method scala/collection/TraversableLike$class.tail:(Lscala/collection/TraversableLike;)Ljava/lang/Object;
	areturn
  Labels:

public final java.lang.Object scala$collection$IndexedSeqLike$$super$head();
  Signature: ()Ljava/lang/Object;
  Code:
   Stack=1, Locals=1, Args_size=1
	aload_0
	invokestatic	Method scala/collection/IterableLike$class.head:(Lscala/collection/IterableLike;)Ljava/lang/Object;
	areturn
  Labels:

public final java.lang.Object scala$collection$IndexedSeqLike$$super$zip(scala.collection.Iterable, scala.collection.generic.CanBuildFrom);
  Signature: (Lscala/collection/Iterable;Lscala/collection/generic/CanBuildFrom;)Ljava/lang/Object;
  Code:
   Stack=3, Locals=3, Args_size=3
	aload_0
	aload_1
	aload_2
	invokestatic	Method scala/collection/IterableLike$class.zip:(Lscala/collection/IterableLike;Lscala/collection/Iterable;Lscala/collection/generic/CanBuildFrom;)Ljava/lang/Object;
	areturn
  Labels:
  LocalVariableTable: 
   Start  Length  Slot  Name   Signature
   0      7      0    this       Lscala/collection/mutable/WrappedArray;
   0      7      1    that       Lscala/collection/Iterable;
   0      7      2    bf       Lscala/collection/generic/CanBuildFrom;


public final java.lang.Object scala$collection$IndexedSeqLike$$super$reduceRight(scala.Function2);
  Signature: (Lscala/Function2;)Ljava/lang/Object;
  Code:
   Stack=2, Locals=2, Args_size=2
	aload_0
	aload_1
	invokestatic	Method scala/collection/IterableLike$class.reduceRight:(Lscala/collection/IterableLike;Lscala/Function2;)Ljava/lang/Object;
	areturn
  Labels:
  LocalVariableTable: 
   Start  Length  Slot  Name   Signature
   0      6      0    this       Lscala/collection/mutable/WrappedArray;
   0      6      1    op       Lscala/Function2;


public final java.lang.Object scala$collection$IndexedSeqLike$$super$reduceLeft(scala.Function2);
  Signature: (Lscala/Function2;)Ljava/lang/Object;
  Code:
   Stack=2, Locals=2, Args_size=2
	aload_0
	aload_1
	invokestatic	Method scala/collection/TraversableLike$class.reduceLeft:(Lscala/collection/TraversableLike;Lscala/Function2;)Ljava/lang/Object;
	areturn
  Labels:
  LocalVariableTable: 
   Start  Length  Slot  Name   Signature
   0      6      0    this       Lscala/collection/mutable/WrappedArray;
   0      6      1    op       Lscala/Function2;


public scala.collection.mutable.IndexedSeqView view(int, int);
  Signature: (II)Lscala/collection/mutable/IndexedSeqView;
  Code:
   Stack=3, Locals=3, Args_size=3
	aload_0
	iload_1
	iload_2
	invokestatic	Method scala/collection/mutable/IndexedSeqLike$class.view:(Lscala/collection/mutable/IndexedSeqLike;II)Lscala/collection/mutable/IndexedSeqView;
	areturn
  Labels:
  LocalVariableTable: 
   Start  Length  Slot  Name   Signature
   0      7      0    this       Lscala/collection/mutable/WrappedArray;
   0      7      1    from       I
   0      7      2    until       I


public java.lang.Object view();
  Signature: ()Ljava/lang/Object;
  Code:
   Stack=1, Locals=1, Args_size=1
	aload_0
	invokestatic	Method scala/collection/mutable/IndexedSeqLike$class.view:(Lscala/collection/mutable/IndexedSeqLike;)Ljava/lang/Object;
	areturn
  Labels:

public scala.collection.generic.GenericCompanion companion();
  Signature: ()Lscala/collection/generic/GenericCompanion;
  Code:
   Stack=1, Locals=1, Args_size=1
	aload_0
	invokestatic	Method scala/collection/mutable/IndexedSeq$class.companion:(Lscala/collection/mutable/IndexedSeq;)Lscala/collection/generic/GenericCompanion;
	areturn
  Labels:

public final boolean deepEquals(java.lang.Object);
  Signature: (Ljava/lang/Object;)Z
  Code:
   Stack=2, Locals=2, Args_size=2
	aload_0
	aload_1
	invokestatic	Method scala/collection/mutable/ArrayLike$class.deepEquals:(Lscala/collection/mutable/ArrayLike;Ljava/lang/Object;)Z
	ireturn
  Labels:
  LocalVariableTable: 
   Start  Length  Slot  Name   Signature
   0      6      0    this       Lscala/collection/mutable/WrappedArray;
   0      6      1    that       Ljava/lang/Object;


public final java.lang.String deepMkString(java.lang.String);
  Signature: (Ljava/lang/String;)Ljava/lang/String;
  Code:
   Stack=2, Locals=2, Args_size=2
	aload_0
	aload_1
	invokestatic	Method scala/collection/mutable/ArrayLike$class.deepMkString:(Lscala/collection/mutable/ArrayLike;Ljava/lang/String;)Ljava/lang/String;
	areturn
  Labels:
  LocalVariableTable: 
   Start  Length  Slot  Name   Signature
   0      6      0    this       Lscala/collection/mutable/WrappedArray;
   0      6      1    sep       Ljava/lang/String;


public final java.lang.String deepMkString(java.lang.String, java.lang.String, java.lang.String);
  Signature: (Ljava/lang/String;Ljava/lang/String;Ljava/lang/String;)Ljava/lang/String;
  Code:
   Stack=4, Locals=4, Args_size=4
	aload_0
	aload_1
	aload_2
	aload_3
	invokestatic	Method scala/collection/mutable/ArrayLike$class.deepMkString:(Lscala/collection/mutable/ArrayLike;Ljava/lang/String;Ljava/lang/String;Ljava/lang/String;)Ljava/lang/String;
	areturn
  Labels:
  LocalVariableTable: 
   Start  Length  Slot  Name   Signature
   0      8      0    this       Lscala/collection/mutable/WrappedArray;
   0      8      1    start       Ljava/lang/String;
   0      8      2    sep       Ljava/lang/String;
   0      8      3    end       Ljava/lang/String;


public final java.lang.String deepToString();
  Signature: ()Ljava/lang/String;
  Code:
   Stack=1, Locals=1, Args_size=1
	aload_0
	invokestatic	Method scala/collection/mutable/ArrayLike$class.deepToString:(Lscala/collection/mutable/ArrayLike;)Ljava/lang/String;
	areturn
  Labels:

public scala.collection.IndexedSeq deep();
  Signature: ()Lscala/collection/IndexedSeq;
  Code:
   Stack=1, Locals=1, Args_size=1
	aload_0
	invokestatic	Method scala/collection/mutable/ArrayLike$class.deep:(Lscala/collection/mutable/ArrayLike;)Lscala/collection/IndexedSeq;
	areturn
  Labels:

}

