Compiled from "WrappedArray.scala"
public abstract class scala.collection.mutable.WrappedArray extends java.lang.Object implements scala.collection.mutable.ArrayLike,scala.collection.mutable.IndexedSeq
  InnerClass: 
   public final ofInt=class scala/collection/mutable/WrappedArray$ofInt of class scala/collection/mutable/WrappedArray
   public final ofRef=class scala/collection/mutable/WrappedArray$ofRef of class scala/collection/mutable/WrappedArray
   public final ofUnit=class scala/collection/mutable/WrappedArray$ofUnit of class scala/collection/mutable/WrappedArray
   public final ofLong=class scala/collection/mutable/WrappedArray$ofLong of class scala/collection/mutable/WrappedArray
   public final ofChar=class scala/collection/mutable/WrappedArray$ofChar of class scala/collection/mutable/WrappedArray
   public final ofByte=class scala/collection/mutable/WrappedArray$ofByte of class scala/collection/mutable/WrappedArray
   public final ofFloat=class scala/collection/mutable/WrappedArray$ofFloat of class scala/collection/mutable/WrappedArray
   public final ofShort=class scala/collection/mutable/WrappedArray$ofShort of class scala/collection/mutable/WrappedArray
   public final ofDouble=class scala/collection/mutable/WrappedArray$ofDouble of class scala/collection/mutable/WrappedArray
   public final ofBoolean=class scala/collection/mutable/WrappedArray$ofBoolean of class scala/collection/mutable/WrappedArray
  ScalaSig: length = 0xBEF
   05 00 FFFFFF83 27 06 05 01 02 FFFFFF81 00 09 02 0C 57 72 61
   70 70 65 64 41 72 72 61 79 0A 02 03 04 01 07 6D
   75 74 61 62 6C 65 0A 02 05 06 01 0A 63 6F 6C 6C
   65 63 74 69 6F 6E 0A 01 07 01 05 73 63 61 6C 61
   03 00 15 02 0A 19 13 05 00 0B 13 23 27 10 02 0C
   11 0D 01 0D 0A 02 0E 0F 01 04 6C 61 6E 67 0A 01
   10 01 04 6A 61 76 61 09 02 12 0D 02 06 4F 62 6A
   65 63 74 10 03 14 15 17 0D 01 02 09 02 16 02 02
   0A 49 6E 64 65 78 65 64 53 65 71 10 02 18 19 0C
   00 04 08 1A 00 FFFFFF84 FFFFFF80 FFFFFF80 FFFFFFC2 00 1B 02 01 54 11 02
   1C 20 10 02 1D 1E 0D 01 06 09 02 1F 06 02 07 4E
   6F 74 68 69 6E 67 10 02 1D 21 09 02 22 06 02 03
   41 6E 79 10 04 14 24 17 26 09 02 25 02 02 09 41
   72 72 61 79 4C 69 6B 65 10 03 14 00 17 10 02 1D
   28 09 02 29 06 02 0B 53 63 61 6C 61 4F 62 6A 65
   63 74 08 05 2B 00 FFFFFF84 00 2C 01 06 3C 69 6E 69 74
   3E 14 01 26 08 06 2E 00 FFFFFFA0 FFFFFF84 28 2F 01 0E 74 68
   69 73 43 6F 6C 6C 65 63 74 69 6F 6E 15 01 26 08
   06 31 00 FFFFFFA0 FFFFFF84 28 32 01 0C 74 6F 43 6F 6C 6C 65
   63 74 69 6F 6E 14 02 26 33 08 05 34 30 FFFFFFC0 00 26
   01 04 72 65 70 72 08 05 36 00 FFFFFF86 00 37 01 0C 65
   6C 65 6D 4D 61 6E 69 66 65 73 74 15 01 38 10 03
   39 3C 17 0D 01 3A 0A 02 3B 06 01 07 72 65 66 6C
   65 63 74 09 02 3D 3A 02 0D 43 6C 61 73 73 4D 61
   6E 69 66 65 73 74 08 05 3F 00 FFFFFF86 00 40 01 06 6C
   65 6E 67 74 68 15 01 41 10 02 1D 42 09 02 43 06
   02 03 49 6E 74 08 05 45 00 FFFFFF86 00 46 01 05 61 70
   70 6C 79 14 02 17 47 08 05 48 44 FFFFFFC0 00 41 01 05
   69 6E 64 65 78 08 05 4A 00 FFFFFF86 00 4B 01 06 75 70
   64 61 74 65 14 03 4C 4F 50 10 02 1D 4D 09 02 4E
   06 02 04 55 6E 69 74 08 05 48 49 FFFFFFC0 00 41 08 05
   51 49 FFFFFFC0 00 17 01 04 65 6C 65 6D 08 05 53 00 FFFFFF86
   00 54 01 05 61 72 72 61 79 15 01 55 10 03 1D 56
   17 09 02 57 06 02 05 41 72 72 61 79 08 05 59 00
   FFFFFF84 20 5A 01 0C 73 74 72 69 6E 67 50 72 65 66 69
   78 15 01 5B 10 02 0C 5C 09 02 5D 0D 02 06 53 74
   72 69 6E 67 08 05 5F 00 FFFFFF84 20 2C 01 05 63 6C 6F
   6E 65 08 06 61 00 FFFFFFA0 FFFFFF84 28 62 01 0A 6E 65 77 42
   75 69 6C 64 65 72 15 01 63 10 04 14 64 17 26 09
   02 65 02 02 07 42 75 69 6C 64 65 72 07 05 67 02
   FFFFFF88 02 68 01 0C 57 72 61 70 70 65 64 41 72 72 61
   79 10 02 14 69 06 08 01 02 FFFFFF84 FFFFFF80 FFFFFF80 FFFFFF88 02 6A 13
   03 69 0B 27 08 05 2B 69 FFFFFF84 00 6C 14 01 68 08 05
   6E 69 FFFFFF84 00 6F 01 04 6D 61 6B 65 15 02 70 73 14
   02 71 74 10 03 14 00 72 10 02 18 73 04 08 1A 6D
   FFFFFF84 FFFFFF80 FFFFFF80 FFFFFFC2 00 1B 08 05 75 6D FFFFFFC0 00 76 01 01 78
   10 02 1D 77 09 02 78 06 02 06 41 6E 79 52 65 66
   08 05 7A 69 FFFFFF84 01 7B 01 0C 63 61 6E 42 75 69 6C
   64 46 72 6F 6D 15 03 7C FFFFFF81 09 16 03 7D FFFFFF81 0B 10
   09 7E FFFFFF81 01 FFFFFF81 03 FFFFFF81 08 FFFFFF81 0A 0D 01 7F 0A 03 FFFFFF81
   00 04 01 07 67 65 6E 65 72 69 63 09 03 FFFFFF81 02 7F
   02 0C 43 61 6E 42 75 69 6C 64 46 72 6F 6D 30 04
   FFFFFF81 04 FFFFFF81 06 10 04 14 00 FFFFFF81 05 10 03 18 FFFFFF81 06 04
   09 FFFFFF81 07 79 FFFFFF84 FFFFFF80 FFFFFF80 FFFFFF82 00 1B 02 03 5F 24 31 10
   03 18 FFFFFF81 09 04 08 1A 79 FFFFFF84 FFFFFF80 FFFFFF80 FFFFFFC2 00 1B 10 04
   14 00 FFFFFF81 08 08 07 FFFFFF81 0C 79 FFFFFFC0 01 FFFFFF81 0D 01 01 6D
   10 04 39 3C FFFFFF81 08 08 06 61 69 FFFFFF84 00 FFFFFF81 0F 15 04
   FFFFFF81 10 FFFFFF81 12 10 06 14 64 FFFFFF81 11 FFFFFF81 14 10 03 18 FFFFFF81
   12 04 0A FFFFFF81 13 FFFFFF81 0E FFFFFF84 FFFFFF80 FFFFFF80 FFFFFFC2 00 1B 02 01 41
   10 04 14 15 FFFFFF81 11 06 06 FFFFFF81 16 69 02 FFFFFF81 17 02 05
   6F 66 52 65 66 15 04 FFFFFF81 18 FFFFFF81 1B 13 05 FFFFFF81 15 FFFFFF81
   19 27 10 04 14 00 FFFFFF81 1A 10 03 18 FFFFFF81 1B 04 0A 1A
   FFFFFF81 15 FFFFFF84 FFFFFF80 FFFFFF80 FFFFFFC2 00 FFFFFF81 1C 11 02 1C 76 08 0A 53
   FFFFFF81 15 FFFFFF82 FFFFFFC2 FFFFFF80 FFFFFF84 00 FFFFFF81 1E 15 02 FFFFFF81 1F 10 04 1D
   56 FFFFFF81 1A 08 0B FFFFFF81 21 FFFFFF81 15 FFFFFF82 FFFFFF80 FFFFFFA0 FFFFFF80 04 FFFFFF81 1F
   01 06 61 72 72 61 79 20 08 07 2B FFFFFF81 15 FFFFFF84 00 FFFFFF81
   23 14 04 FFFFFF81 24 FFFFFF81 26 10 06 FFFFFF81 25 FFFFFF81 15 FFFFFF81 1A 0D
   01 69 08 07 53 FFFFFF81 22 FFFFFFC0 00 FFFFFF81 1F 08 0A 36 FFFFFF81 15
   FFFFFF88 FFFFFFC2 FFFFFF80 FFFFFF84 00 FFFFFF81 28 15 02 FFFFFF81 29 10 04 39 3C FFFFFF81
   1A 08 0B FFFFFF81 2B FFFFFF81 15 FFFFFF88 FFFFFF80 FFFFFFA0 FFFFFFA0 04 FFFFFF81 29 01 0D
   65 6C 65 6D 4D 61 6E 69 66 65 73 74 20 08 06 3F
   FFFFFF81 15 FFFFFF84 00 40 08 07 45 FFFFFF81 15 FFFFFF84 00 FFFFFF81 2E 14 04
   FFFFFF81 1A FFFFFF81 2F 08 06 48 FFFFFF81 2D FFFFFFC0 00 41 08 07 4A FFFFFF81
   15 FFFFFF84 00 FFFFFF81 31 14 05 4C FFFFFF81 32 FFFFFF81 33 08 06 48 FFFFFF81
   30 FFFFFFC0 00 41 08 07 51 FFFFFF81 30 FFFFFFC0 00 FFFFFF81 1A 28 04 FFFFFF81
   15 FFFFFF81 35 10 03 1D FFFFFF81 36 09 03 FFFFFF81 37 06 02 0C 73
   65 72 69 61 6C 69 7A 61 62 6C 65 06 0A FFFFFF81 39 69
   FFFFFF84 FFFFFF80 FFFFFF80 FFFFFF80 02 FFFFFF81 3A 02 06 6F 66 42 79 74 65 13
   05 FFFFFF81 38 FFFFFF81 3B 27 10 04 14 00 FFFFFF81 3C 10 03 1D FFFFFF81
   3D 09 03 FFFFFF81 3E 06 02 04 42 79 74 65 08 0A 53 FFFFFF81
   38 FFFFFF82 FFFFFFC2 FFFFFF80 FFFFFF84 00 FFFFFF81 40 15 02 FFFFFF81 41 10 04 1D 56
   FFFFFF81 3C 08 0B FFFFFF81 21 FFFFFF81 38 FFFFFF82 FFFFFF80 FFFFFFA0 FFFFFF80 04 FFFFFF81 41 08
   07 2B FFFFFF81 38 FFFFFF84 00 FFFFFF81 44 14 04 FFFFFF81 45 FFFFFF81 46 10 04
   FFFFFF81 25 FFFFFF81 38 08 07 53 FFFFFF81 43 FFFFFFC0 00 FFFFFF81 41 08 07 36
   FFFFFF81 38 FFFFFF84 00 FFFFFF81 48 15 02 FFFFFF81 49 10 05 39 FFFFFF81 4A FFFFFF81
   3C 09 03 FFFFFF81 4B 3A 02 0E 41 6E 79 56 61 6C 4D 61
   6E 69 66 65 73 74 08 06 3F FFFFFF81 38 FFFFFF84 00 40 08 07
   45 FFFFFF81 38 FFFFFF84 00 FFFFFF81 4E 14 04 FFFFFF81 3C FFFFFF81 4F 08 06 48
   FFFFFF81 4D FFFFFFC0 00 41 08 07 4A FFFFFF81 38 FFFFFF84 00 FFFFFF81 51 14 05
   4C FFFFFF81 52 FFFFFF81 53 08 06 48 FFFFFF81 50 FFFFFFC0 00 41 08 07 51
   FFFFFF81 50 FFFFFFC0 00 FFFFFF81 3C 28 04 FFFFFF81 38 FFFFFF81 35 06 0A FFFFFF81 56
   69 FFFFFF84 FFFFFF80 FFFFFF80 FFFFFF80 02 FFFFFF81 57 02 07 6F 66 53 68 6F 72
   74 13 05 FFFFFF81 55 FFFFFF81 58 27 10 04 14 00 FFFFFF81 59 10 03
   1D FFFFFF81 5A 09 03 FFFFFF81 5B 06 02 05 53 68 6F 72 74 08
   0A 53 FFFFFF81 55 FFFFFF82 FFFFFFC2 FFFFFF80 FFFFFF84 00 FFFFFF81 5D 15 02 FFFFFF81 5E 10
   04 1D 56 FFFFFF81 59 08 0B FFFFFF81 21 FFFFFF81 55 FFFFFF82 FFFFFF80 FFFFFFA0 FFFFFF80 04
   FFFFFF81 5E 08 07 2B FFFFFF81 55 FFFFFF84 00 FFFFFF81 61 14 04 FFFFFF81 62 FFFFFF81
   63 10 04 FFFFFF81 25 FFFFFF81 55 08 07 53 FFFFFF81 60 FFFFFFC0 00 FFFFFF81 5E
   08 07 36 FFFFFF81 55 FFFFFF84 00 FFFFFF81 65 15 02 FFFFFF81 66 10 05 39
   FFFFFF81 4A FFFFFF81 59 08 06 3F FFFFFF81 55 FFFFFF84 00 40 08 07 45 FFFFFF81
   55 FFFFFF84 00 FFFFFF81 69 14 04 FFFFFF81 59 FFFFFF81 6A 08 06 48 FFFFFF81 68
   FFFFFFC0 00 41 08 07 4A FFFFFF81 55 FFFFFF84 00 FFFFFF81 6C 14 05 4C FFFFFF81
   6D FFFFFF81 6E 08 06 48 FFFFFF81 6B FFFFFFC0 00 41 08 07 51 FFFFFF81 6B
   FFFFFFC0 00 FFFFFF81 59 28 04 FFFFFF81 55 FFFFFF81 35 06 0A FFFFFF81 71 69 FFFFFF84
   FFFFFF80 FFFFFF80 FFFFFF80 02 FFFFFF81 72 02 06 6F 66 43 68 61 72 13 05
   FFFFFF81 70 FFFFFF81 73 27 10 04 14 00 FFFFFF81 74 10 03 1D FFFFFF81 75
   09 03 FFFFFF81 76 06 02 04 43 68 61 72 08 0A 53 FFFFFF81 70
   FFFFFF82 FFFFFFC2 FFFFFF80 FFFFFF84 00 FFFFFF81 78 15 02 FFFFFF81 79 10 04 1D 56 FFFFFF81
   74 08 0B FFFFFF81 21 FFFFFF81 70 FFFFFF82 FFFFFF80 FFFFFFA0 FFFFFF80 04 FFFFFF81 79 08 07
   2B FFFFFF81 70 FFFFFF84 00 FFFFFF81 7C 14 04 FFFFFF81 7D FFFFFF81 7E 10 04 FFFFFF81
   25 FFFFFF81 70 08 07 53 FFFFFF81 7B FFFFFFC0 00 FFFFFF81 79 08 07 36 FFFFFF81
   70 FFFFFF84 00 FFFFFF82 00 15 02 FFFFFF82 01 10 05 39 FFFFFF81 4A FFFFFF81 74
   08 06 3F FFFFFF81 70 FFFFFF84 00 40 08 07 45 FFFFFF81 70 FFFFFF84 00 FFFFFF82
   04 14 04 FFFFFF81 74 FFFFFF82 05 08 06 48 FFFFFF82 03 FFFFFFC0 00 41 08
   07 4A FFFFFF81 70 FFFFFF84 00 FFFFFF82 07 14 05 4C FFFFFF82 08 FFFFFF82 09 08
   06 48 FFFFFF82 06 FFFFFFC0 00 41 08 07 51 FFFFFF82 06 FFFFFFC0 00 FFFFFF81 74
   28 04 FFFFFF81 70 FFFFFF81 35 06 0A FFFFFF82 0C 69 FFFFFF84 FFFFFF80 FFFFFF80 FFFFFF80 02
   FFFFFF82 0D 02 05 6F 66 49 6E 74 13 05 FFFFFF82 0B FFFFFF82 0E 27
   10 03 14 00 41 08 0A 53 FFFFFF82 0B FFFFFF82 FFFFFFC2 FFFFFF80 FFFFFF84 00 FFFFFF82
   10 15 02 FFFFFF82 11 10 03 1D 56 41 08 0B FFFFFF81 21 FFFFFF82 0B
   FFFFFF82 FFFFFF80 FFFFFFA0 FFFFFF80 04 FFFFFF82 11 08 07 2B FFFFFF82 0B FFFFFF84 00 FFFFFF82 14
   14 04 FFFFFF82 15 FFFFFF82 16 10 04 FFFFFF81 25 FFFFFF82 0B 08 07 53 FFFFFF82
   13 FFFFFFC0 00 FFFFFF82 11 08 07 36 FFFFFF82 0B FFFFFF84 00 FFFFFF82 18 15 02
   FFFFFF82 19 10 04 39 FFFFFF81 4A 41 08 06 3F FFFFFF82 0B FFFFFF84 00 40
   08 07 45 FFFFFF82 0B FFFFFF84 00 FFFFFF82 1C 14 03 41 FFFFFF82 1D 08 06
   48 FFFFFF82 1B FFFFFFC0 00 41 08 07 4A FFFFFF82 0B FFFFFF84 00 FFFFFF82 1F 14
   05 4C FFFFFF82 20 FFFFFF82 21 08 06 48 FFFFFF82 1E FFFFFFC0 00 41 08 06
   51 FFFFFF82 1E FFFFFFC0 00 41 28 04 FFFFFF82 0B FFFFFF81 35 06 0A FFFFFF82 24
   69 FFFFFF84 FFFFFF80 FFFFFF80 FFFFFF80 02 FFFFFF82 25 02 06 6F 66 4C 6F 6E 67
   13 05 FFFFFF82 23 FFFFFF82 26 27 10 04 14 00 FFFFFF82 27 10 03 1D
   FFFFFF82 28 09 03 FFFFFF82 29 06 02 04 4C 6F 6E 67 08 0A 53
   FFFFFF82 23 FFFFFF82 FFFFFFC2 FFFFFF80 FFFFFF84 00 FFFFFF82 2B 15 02 FFFFFF82 2C 10 04 1D
   56 FFFFFF82 27 08 0B FFFFFF81 21 FFFFFF82 23 FFFFFF82 FFFFFF80 FFFFFFA0 FFFFFF80 04 FFFFFF82 2C
   08 07 2B FFFFFF82 23 FFFFFF84 00 FFFFFF82 2F 14 04 FFFFFF82 30 FFFFFF82 31 10
   04 FFFFFF81 25 FFFFFF82 23 08 07 53 FFFFFF82 2E FFFFFFC0 00 FFFFFF82 2C 08 07
   36 FFFFFF82 23 FFFFFF84 00 FFFFFF82 33 15 02 FFFFFF82 34 10 05 39 FFFFFF81 4A
   FFFFFF82 27 08 06 3F FFFFFF82 23 FFFFFF84 00 40 08 07 45 FFFFFF82 23 FFFFFF84
   00 FFFFFF82 37 14 04 FFFFFF82 27 FFFFFF82 38 08 06 48 FFFFFF82 36 FFFFFFC0 00
   41 08 07 4A FFFFFF82 23 FFFFFF84 00 FFFFFF82 3A 14 05 4C FFFFFF82 3B FFFFFF82
   3C 08 06 48 FFFFFF82 39 FFFFFFC0 00 41 08 07 51 FFFFFF82 39 FFFFFFC0 00
   FFFFFF82 27 28 04 FFFFFF82 23 FFFFFF81 35 06 0A FFFFFF82 3F 69 FFFFFF84 FFFFFF80 FFFFFF80
   FFFFFF80 02 FFFFFF82 40 02 07 6F 66 46 6C 6F 61 74 13 05 FFFFFF82
   3E FFFFFF82 41 27 10 04 14 00 FFFFFF82 42 10 03 1D FFFFFF82 43 09
   03 FFFFFF82 44 06 02 05 46 6C 6F 61 74 08 0A 53 FFFFFF82 3E
   FFFFFF82 FFFFFFC2 FFFFFF80 FFFFFF84 00 FFFFFF82 46 15 02 FFFFFF82 47 10 04 1D 56 FFFFFF82
   42 08 0B FFFFFF81 21 FFFFFF82 3E FFFFFF82 FFFFFF80 FFFFFFA0 FFFFFF80 04 FFFFFF82 47 08 07
   2B FFFFFF82 3E FFFFFF84 00 FFFFFF82 4A 14 04 FFFFFF82 4B FFFFFF82 4C 10 04 FFFFFF81
   25 FFFFFF82 3E 08 07 53 FFFFFF82 49 FFFFFFC0 00 FFFFFF82 47 08 07 36 FFFFFF82
   3E FFFFFF84 00 FFFFFF82 4E 15 02 FFFFFF82 4F 10 05 39 FFFFFF81 4A FFFFFF82 42
   08 06 3F FFFFFF82 3E FFFFFF84 00 40 08 07 45 FFFFFF82 3E FFFFFF84 00 FFFFFF82
   52 14 04 FFFFFF82 42 FFFFFF82 53 08 06 48 FFFFFF82 51 FFFFFFC0 00 41 08
   07 4A FFFFFF82 3E FFFFFF84 00 FFFFFF82 55 14 05 4C FFFFFF82 56 FFFFFF82 57 08
   06 48 FFFFFF82 54 FFFFFFC0 00 41 08 07 51 FFFFFF82 54 FFFFFFC0 00 FFFFFF82 42
   28 04 FFFFFF82 3E FFFFFF81 35 06 0A FFFFFF82 5A 69 FFFFFF84 FFFFFF80 FFFFFF80 FFFFFF80 02
   FFFFFF82 5B 02 08 6F 66 44 6F 75 62 6C 65 13 05 FFFFFF82 59
   FFFFFF82 5C 27 10 04 14 00 FFFFFF82 5D 10 03 1D FFFFFF82 5E 09 03
   FFFFFF82 5F 06 02 06 44 6F 75 62 6C 65 08 0A 53 FFFFFF82 59
   FFFFFF82 FFFFFFC2 FFFFFF80 FFFFFF84 00 FFFFFF82 61 15 02 FFFFFF82 62 10 04 1D 56 FFFFFF82
   5D 08 0B FFFFFF81 21 FFFFFF82 59 FFFFFF82 FFFFFF80 FFFFFFA0 FFFFFF80 04 FFFFFF82 62 08 07
   2B FFFFFF82 59 FFFFFF84 00 FFFFFF82 65 14 04 FFFFFF82 66 FFFFFF82 67 10 04 FFFFFF81
   25 FFFFFF82 59 08 07 53 FFFFFF82 64 FFFFFFC0 00 FFFFFF82 62 08 07 36 FFFFFF82
   59 FFFFFF84 00 FFFFFF82 69 15 02 FFFFFF82 6A 10 05 39 FFFFFF81 4A FFFFFF82 5D
   08 06 3F FFFFFF82 59 FFFFFF84 00 40 08 07 45 FFFFFF82 59 FFFFFF84 00 FFFFFF82
   6D 14 04 FFFFFF82 5D FFFFFF82 6E 08 06 48 FFFFFF82 6C FFFFFFC0 00 41 08
   07 4A FFFFFF82 59 FFFFFF84 00 FFFFFF82 70 14 05 4C FFFFFF82 71 FFFFFF82 72 08
   06 48 FFFFFF82 6F FFFFFFC0 00 41 08 07 51 FFFFFF82 6F FFFFFFC0 00 FFFFFF82 5D
   28 04 FFFFFF82 59 FFFFFF81 35 06 0A FFFFFF82 75 69 FFFFFF84 FFFFFF80 FFFFFF80 FFFFFF80 02
   FFFFFF82 76 02 09 6F 66 42 6F 6F 6C 65 61 6E 13 05 FFFFFF82
   74 FFFFFF82 77 27 10 04 14 00 FFFFFF82 78 10 03 1D FFFFFF82 79 09
   03 FFFFFF82 7A 06 02 07 42 6F 6F 6C 65 61 6E 08 0A 53
   FFFFFF82 74 FFFFFF82 FFFFFFC2 FFFFFF80 FFFFFF84 00 FFFFFF82 7C 15 02 FFFFFF82 7D 10 04 1D
   56 FFFFFF82 78 08 0B FFFFFF81 21 FFFFFF82 74 FFFFFF82 FFFFFF80 FFFFFFA0 FFFFFF80 04 FFFFFF82 7D
   08 07 2B FFFFFF82 74 FFFFFF84 00 FFFFFF83 00 14 04 FFFFFF83 01 FFFFFF83 02 10
   04 FFFFFF81 25 FFFFFF82 74 08 07 53 FFFFFF82 7F FFFFFFC0 00 FFFFFF82 7D 08 07
   36 FFFFFF82 74 FFFFFF84 00 FFFFFF83 04 15 02 FFFFFF83 05 10 05 39 FFFFFF81 4A
   FFFFFF82 78 08 06 3F FFFFFF82 74 FFFFFF84 00 40 08 07 45 FFFFFF82 74 FFFFFF84
   00 FFFFFF83 08 14 04 FFFFFF82 78 FFFFFF83 09 08 06 48 FFFFFF83 07 FFFFFFC0 00
   41 08 07 4A FFFFFF82 74 FFFFFF84 00 FFFFFF83 0B 14 05 4C FFFFFF83 0C FFFFFF83
   0D 08 06 48 FFFFFF83 0A FFFFFFC0 00 41 08 07 51 FFFFFF83 0A FFFFFFC0 00
   FFFFFF82 78 28 04 FFFFFF82 74 FFFFFF81 35 06 0A FFFFFF83 10 69 FFFFFF84 FFFFFF80 FFFFFF80
   FFFFFF80 02 FFFFFF83 11 02 06 6F 66 55 6E 69 74 13 05 FFFFFF83 0F
   FFFFFF83 12 27 10 03 14 00 4C 08 0A 53 FFFFFF83 0F FFFFFF82 FFFFFFC2 FFFFFF80
   FFFFFF84 00 FFFFFF83 14 15 02 FFFFFF83 15 10 03 1D 56 4C 08 0B FFFFFF81
   21 FFFFFF83 0F FFFFFF82 FFFFFF80 FFFFFFA0 FFFFFF80 04 FFFFFF83 15 08 07 2B FFFFFF83 0F FFFFFF84
   00 FFFFFF83 18 14 04 FFFFFF83 19 FFFFFF83 1A 10 04 FFFFFF81 25 FFFFFF83 0F 08
   07 53 FFFFFF83 17 FFFFFFC0 00 FFFFFF83 15 08 07 36 FFFFFF83 0F FFFFFF84 00 FFFFFF83
   1C 15 02 FFFFFF83 1D 10 04 39 FFFFFF81 4A 4C 08 06 3F FFFFFF83 0F
   FFFFFF84 00 40 08 07 45 FFFFFF83 0F FFFFFF84 00 FFFFFF83 20 14 03 4C FFFFFF83
   21 08 06 48 FFFFFF83 1F FFFFFFC0 00 41 08 07 4A FFFFFF83 0F FFFFFF84 00
   FFFFFF83 23 14 05 4C FFFFFF83 24 FFFFFF83 25 08 06 48 FFFFFF83 22 FFFFFFC0 00
   41 08 06 51 FFFFFF83 22 FFFFFFC0 00 4C 28 04 FFFFFF83 0F FFFFFF81 35 
  Signature: length = 0x2
   00 FFFFFFFD 
  SourceFile: "WrappedArray.scala"
  minor version: 0
  major version: 49
  Constant pool:
String	WrappedArray
class	java/lang/Object
class	scala/Function1$class
class	scala/PartialFunction$class
class	scala/collection/IndexedSeq$class
class	scala/collection/IndexedSeqLike$class
class	scala/collection/Iterable$class
class	scala/collection/IterableLike$class
class	scala/collection/Seq$class
class	scala/collection/SeqLike$class
class	scala/collection/Traversable$class
class	scala/collection/TraversableLike
class	scala/collection/TraversableLike$class
class	scala/collection/generic/GenericTraversableTemplate$class
class	scala/collection/mutable/ArrayLike
class	scala/collection/mutable/ArrayLike$class
class	scala/collection/mutable/IndexedSeq
class	scala/collection/mutable/IndexedSeq$class
class	scala/collection/mutable/IndexedSeqLike$class
class	scala/collection/mutable/Iterable$class
class	scala/collection/mutable/Seq$class
class	scala/collection/mutable/Traversable$class
class	scala/collection/mutable/WrappedArray
class	scala/collection/mutable/WrappedArray$
class	scala/collection/mutable/WrappedArray$ofBoolean
class	scala/collection/mutable/WrappedArray$ofByte
class	scala/collection/mutable/WrappedArray$ofChar
class	scala/collection/mutable/WrappedArray$ofDouble
class	scala/collection/mutable/WrappedArray$ofFloat
class	scala/collection/mutable/WrappedArray$ofInt
class	scala/collection/mutable/WrappedArray$ofLong
class	scala/collection/mutable/WrappedArray$ofRef
class	scala/collection/mutable/WrappedArray$ofShort
class	scala/collection/mutable/WrappedArray$ofUnit
class	scala/collection/mutable/WrappedArrayBuilder
class	scala/runtime/ScalaRunTime$
Field	scala/collection/mutable/WrappedArray$.MODULE$:Lscala/collection/mutable/WrappedArray$;
Field	scala/runtime/ScalaRunTime$.MODULE$:Lscala/runtime/ScalaRunTime$;
Method	java/lang/Object."<init>":()V
Method	scala/Function1$class.$init$:(Lscala/Function1;)V
Method	scala/PartialFunction$class.$init$:(Lscala/PartialFunction;)V
Method	scala/collection/IndexedSeq$class.$init$:(Lscala/collection/IndexedSeq;)V
Method	scala/collection/IndexedSeqLike$class.$init$:(Lscala/collection/IndexedSeqLike;)V
Method	scala/collection/IndexedSeqLike$class.copyToArray:(Lscala/collection/IndexedSeqLike;Ljava/lang/Object;II)V
Method	scala/collection/IndexedSeqLike$class.drop:(Lscala/collection/IndexedSeqLike;I)Ljava/lang/Object;
Method	scala/collection/IndexedSeqLike$class.foldLeft:(Lscala/collection/IndexedSeqLike;Ljava/lang/Object;Lscala/Function2;)Ljava/lang/Object;
Method	scala/collection/IndexedSeqLike$class.forall:(Lscala/collection/IndexedSeqLike;Lscala/Function1;)Z
Method	scala/collection/IndexedSeqLike$class.foreach:(Lscala/collection/IndexedSeqLike;Lscala/Function1;)V
Method	scala/collection/IndexedSeqLike$class.head:(Lscala/collection/IndexedSeqLike;)Ljava/lang/Object;
Method	scala/collection/IndexedSeqLike$class.isEmpty:(Lscala/collection/IndexedSeqLike;)Z
Method	scala/collection/IndexedSeqLike$class.iterator:(Lscala/collection/IndexedSeqLike;)Lscala/collection/Iterator;
Method	scala/collection/IndexedSeqLike$class.sameElements:(Lscala/collection/IndexedSeqLike;Lscala/collection/Iterable;)Z
Method	scala/collection/IndexedSeqLike$class.segmentLength:(Lscala/collection/IndexedSeqLike;Lscala/Function1;I)I
Method	scala/collection/IndexedSeqLike$class.slice:(Lscala/collection/IndexedSeqLike;II)Ljava/lang/Object;
Method	scala/collection/IndexedSeqLike$class.tail:(Lscala/collection/IndexedSeqLike;)Ljava/lang/Object;
Method	scala/collection/Iterable$class.$init$:(Lscala/collection/Iterable;)V
Method	scala/collection/IterableLike$class.$init$:(Lscala/collection/IterableLike;)V
Method	scala/collection/IterableLike$class.canEqual:(Lscala/collection/IterableLike;Ljava/lang/Object;)Z
Method	scala/collection/IterableLike$class.head:(Lscala/collection/IterableLike;)Ljava/lang/Object;
Method	scala/collection/IterableLike$class.sameElements:(Lscala/collection/IterableLike;Lscala/collection/Iterable;)Z
Method	scala/collection/IterableLike$class.toIterable:(Lscala/collection/IterableLike;)Lscala/collection/Iterable;
Method	scala/collection/Seq$class.$init$:(Lscala/collection/Seq;)V
Method	scala/collection/SeqLike$class.$init$:(Lscala/collection/SeqLike;)V
Method	scala/collection/SeqLike$class.equals:(Lscala/collection/SeqLike;Ljava/lang/Object;)Z
Method	scala/collection/SeqLike$class.hashCode:(Lscala/collection/SeqLike;)I
Method	scala/collection/SeqLike$class.prefixLength:(Lscala/collection/SeqLike;Lscala/Function1;)I
Method	scala/collection/SeqLike$class.size:(Lscala/collection/SeqLike;)I
Method	scala/collection/SeqLike$class.toString:(Lscala/collection/SeqLike;)Ljava/lang/String;
Method	scala/collection/Traversable$class.$init$:(Lscala/collection/Traversable;)V
Method	scala/collection/TraversableLike$class.$div$colon:(Lscala/collection/TraversableLike;Ljava/lang/Object;Lscala/Function2;)Ljava/lang/Object;
Method	scala/collection/TraversableLike$class.$init$:(Lscala/collection/TraversableLike;)V
Method	scala/collection/TraversableLike$class.addString:(Lscala/collection/TraversableLike;Lscala/collection/mutable/StringBuilder;Ljava/lang/String;Ljava/lang/String;Ljava/lang/String;)Lscala/collection/mutable/StringBuilder;
Method	scala/collection/TraversableLike$class.copyToArray:(Lscala/collection/TraversableLike;Ljava/lang/Object;I)V
Method	scala/collection/TraversableLike$class.filter:(Lscala/collection/TraversableLike;Lscala/Function1;)Ljava/lang/Object;
Method	scala/collection/TraversableLike$class.map:(Lscala/collection/TraversableLike;Lscala/Function1;Lscala/collection/generic/CanBuildFrom;)Ljava/lang/Object;
Method	scala/collection/TraversableLike$class.mkString:(Lscala/collection/TraversableLike;Ljava/lang/String;Ljava/lang/String;Ljava/lang/String;)Ljava/lang/String;
Method	scala/collection/TraversableLike$class.nonEmpty:(Lscala/collection/TraversableLike;)Z
Method	scala/collection/TraversableLike$class.repr:(Lscala/collection/TraversableLike;)Ljava/lang/Object;
Method	scala/collection/TraversableLike$class.sum:(Lscala/collection/TraversableLike;Lscala/math/Numeric;)Ljava/lang/Object;
Method	scala/collection/TraversableLike$class.tail:(Lscala/collection/TraversableLike;)Ljava/lang/Object;
Method	scala/collection/TraversableLike$class.toArray:(Lscala/collection/TraversableLike;Lscala/reflect/ClassManifest;)Ljava/lang/Object;
Method	scala/collection/TraversableLike$class.toList:(Lscala/collection/TraversableLike;)Lscala/collection/immutable/List;
Method	scala/collection/generic/GenericTraversableTemplate$class.$init$:(Lscala/collection/generic/GenericTraversableTemplate;)V
Method	scala/collection/generic/GenericTraversableTemplate$class.genericBuilder:(Lscala/collection/generic/GenericTraversableTemplate;)Lscala/collection/mutable/Builder;
Method	scala/collection/mutable/ArrayLike$class.$init$:(Lscala/collection/mutable/ArrayLike;)V
Method	scala/collection/mutable/IndexedSeq$class.$init$:(Lscala/collection/mutable/IndexedSeq;)V
Method	scala/collection/mutable/IndexedSeq$class.companion:(Lscala/collection/mutable/IndexedSeq;)Lscala/collection/generic/GenericCompanion;
Method	scala/collection/mutable/IndexedSeqLike$class.$init$:(Lscala/collection/mutable/IndexedSeqLike;)V
Method	scala/collection/mutable/Iterable$class.$init$:(Lscala/collection/mutable/Iterable;)V
Method	scala/collection/mutable/Seq$class.$init$:(Lscala/collection/mutable/Seq;)V
Method	scala/collection/mutable/Traversable$class.$init$:(Lscala/collection/mutable/Traversable;)V
Method	scala/collection/mutable/WrappedArray.array:()Ljava/lang/Object;
Method	scala/collection/mutable/WrappedArray.clone:()Lscala/collection/mutable/WrappedArray;
Method	scala/collection/mutable/WrappedArray.elemManifest:()Lscala/reflect/ClassManifest;
Method	scala/collection/mutable/WrappedArray.thisCollection:()Lscala/collection/mutable/WrappedArray;
Method	scala/collection/mutable/WrappedArray$.make:(Ljava/lang/Object;)Lscala/collection/mutable/WrappedArray;
Method	scala/collection/mutable/WrappedArrayBuilder."<init>":(Lscala/reflect/ClassManifest;)V
Method	scala/runtime/ScalaRunTime$.array_clone:(Ljava/lang/Object;)Ljava/lang/Object;
NameAndType	$div$colon:(Lscala/collection/TraversableLike;Ljava/lang/Object;Lscala/Function2;)Ljava/lang/Object;
NameAndType	$init$:(Lscala/Function1;)V
NameAndType	$init$:(Lscala/PartialFunction;)V
NameAndType	$init$:(Lscala/collection/IndexedSeq;)V
NameAndType	$init$:(Lscala/collection/IndexedSeqLike;)V
NameAndType	$init$:(Lscala/collection/Iterable;)V
NameAndType	$init$:(Lscala/collection/IterableLike;)V
NameAndType	$init$:(Lscala/collection/Seq;)V
NameAndType	$init$:(Lscala/collection/SeqLike;)V
NameAndType	$init$:(Lscala/collection/Traversable;)V
NameAndType	$init$:(Lscala/collection/TraversableLike;)V
NameAndType	$init$:(Lscala/collection/generic/GenericTraversableTemplate;)V
NameAndType	$init$:(Lscala/collection/mutable/ArrayLike;)V
NameAndType	$init$:(Lscala/collection/mutable/IndexedSeq;)V
NameAndType	$init$:(Lscala/collection/mutable/IndexedSeqLike;)V
NameAndType	$init$:(Lscala/collection/mutable/Iterable;)V
NameAndType	$init$:(Lscala/collection/mutable/Seq;)V
NameAndType	$init$:(Lscala/collection/mutable/Traversable;)V
NameAndType	"<init>":()V
NameAndType	"<init>":(Lscala/reflect/ClassManifest;)V
NameAndType	MODULE$:Lscala/collection/mutable/WrappedArray$;
NameAndType	MODULE$:Lscala/runtime/ScalaRunTime$;
NameAndType	addString:(Lscala/collection/TraversableLike;Lscala/collection/mutable/StringBuilder;Ljava/lang/String;Ljava/lang/String;Ljava/lang/String;)Lscala/collection/mutable/StringBuilder;
NameAndType	array:()Ljava/lang/Object;
NameAndType	array_clone:(Ljava/lang/Object;)Ljava/lang/Object;
NameAndType	canEqual:(Lscala/collection/IterableLike;Ljava/lang/Object;)Z
NameAndType	clone:()Lscala/collection/mutable/WrappedArray;
NameAndType	companion:(Lscala/collection/mutable/IndexedSeq;)Lscala/collection/generic/GenericCompanion;
NameAndType	copyToArray:(Lscala/collection/IndexedSeqLike;Ljava/lang/Object;II)V
NameAndType	copyToArray:(Lscala/collection/TraversableLike;Ljava/lang/Object;I)V
NameAndType	drop:(Lscala/collection/IndexedSeqLike;I)Ljava/lang/Object;
NameAndType	elemManifest:()Lscala/reflect/ClassManifest;
NameAndType	equals:(Lscala/collection/SeqLike;Ljava/lang/Object;)Z
NameAndType	filter:(Lscala/collection/TraversableLike;Lscala/Function1;)Ljava/lang/Object;
NameAndType	foldLeft:(Lscala/collection/IndexedSeqLike;Ljava/lang/Object;Lscala/Function2;)Ljava/lang/Object;
NameAndType	forall:(Lscala/collection/IndexedSeqLike;Lscala/Function1;)Z
NameAndType	foreach:(Lscala/collection/IndexedSeqLike;Lscala/Function1;)V
NameAndType	genericBuilder:(Lscala/collection/generic/GenericTraversableTemplate;)Lscala/collection/mutable/Builder;
NameAndType	hashCode:(Lscala/collection/SeqLike;)I
NameAndType	head:(Lscala/collection/IndexedSeqLike;)Ljava/lang/Object;
NameAndType	head:(Lscala/collection/IterableLike;)Ljava/lang/Object;
NameAndType	isEmpty:(Lscala/collection/IndexedSeqLike;)Z
NameAndType	iterator:(Lscala/collection/IndexedSeqLike;)Lscala/collection/Iterator;
NameAndType	make:(Ljava/lang/Object;)Lscala/collection/mutable/WrappedArray;
NameAndType	map:(Lscala/collection/TraversableLike;Lscala/Function1;Lscala/collection/generic/CanBuildFrom;)Ljava/lang/Object;
NameAndType	mkString:(Lscala/collection/TraversableLike;Ljava/lang/String;Ljava/lang/String;Ljava/lang/String;)Ljava/lang/String;
NameAndType	nonEmpty:(Lscala/collection/TraversableLike;)Z
NameAndType	prefixLength:(Lscala/collection/SeqLike;Lscala/Function1;)I
NameAndType	repr:(Lscala/collection/TraversableLike;)Ljava/lang/Object;
NameAndType	sameElements:(Lscala/collection/IndexedSeqLike;Lscala/collection/Iterable;)Z
NameAndType	sameElements:(Lscala/collection/IterableLike;Lscala/collection/Iterable;)Z
NameAndType	segmentLength:(Lscala/collection/IndexedSeqLike;Lscala/Function1;I)I
NameAndType	size:(Lscala/collection/SeqLike;)I
NameAndType	slice:(Lscala/collection/IndexedSeqLike;II)Ljava/lang/Object;
NameAndType	sum:(Lscala/collection/TraversableLike;Lscala/math/Numeric;)Ljava/lang/Object;
NameAndType	tail:(Lscala/collection/IndexedSeqLike;)Ljava/lang/Object;
NameAndType	tail:(Lscala/collection/TraversableLike;)Ljava/lang/Object;
NameAndType	thisCollection:()Lscala/collection/mutable/WrappedArray;
NameAndType	toArray:(Lscala/collection/TraversableLike;Lscala/reflect/ClassManifest;)Ljava/lang/Object;
NameAndType	toIterable:(Lscala/collection/IterableLike;)Lscala/collection/Iterable;
NameAndType	toList:(Lscala/collection/TraversableLike;)Lscala/collection/immutable/List;
NameAndType	toString:(Lscala/collection/SeqLike;)Ljava/lang/String;
Asciz	$div$colon;
Asciz	$init$;
Asciz	()I;
Asciz	()Ljava/lang/Object;;
Asciz	()Ljava/lang/String;;
Asciz	()Lscala/collection/IndexedSeq;;
Asciz	()Lscala/collection/Iterable;;
Asciz	()Lscala/collection/Iterator;;
Asciz	()Lscala/collection/Seq;;
Asciz	()Lscala/collection/Traversable;;
Asciz	()Lscala/collection/generic/GenericCompanion;;
Asciz	()Lscala/collection/immutable/List;;
Asciz	()Lscala/collection/mutable/Builder;;
Asciz	()Lscala/collection/mutable/Builder<TT;Lscala/collection/mutable/WrappedArray<TT;>;>;;
Asciz	()Lscala/collection/mutable/IndexedSeq;;
Asciz	()Lscala/collection/mutable/WrappedArray;;
Asciz	()Lscala/collection/mutable/WrappedArray<TT;>;;
Asciz	()Lscala/reflect/ClassManifest;;
Asciz	()Lscala/reflect/ClassManifest<TT;>;;
Asciz	()V;
Asciz	()Z;
Asciz	()[TT;;
Asciz	(I)Ljava/lang/Object;;
Asciz	(II)Ljava/lang/Object;;
Asciz	(ILjava/lang/Object;)V;
Asciz	(ITT;)V;
Asciz	(Ljava/lang/Object;)Ljava/lang/Object;;
Asciz	(Ljava/lang/Object;)Lscala/collection/mutable/WrappedArray;;
Asciz	(Ljava/lang/Object;)Z;
Asciz	(Ljava/lang/Object;I)V;
Asciz	(Ljava/lang/Object;II)V;
Asciz	(Ljava/lang/Object;Lscala/Function2;)Ljava/lang/Object;;
Asciz	(Ljava/lang/String;Ljava/lang/String;Ljava/lang/String;)Ljava/lang/String;;
Asciz	(Lscala/Function1;)I;
Asciz	(Lscala/Function1;)Ljava/lang/Object;;
Asciz	(Lscala/Function1;)V;
Asciz	(Lscala/Function1;)Z;
Asciz	(Lscala/Function1;I)I;
Asciz	(Lscala/Function1;Lscala/collection/generic/CanBuildFrom;)Ljava/lang/Object;;
Asciz	(Lscala/PartialFunction;)V;
Asciz	(Lscala/collection/IndexedSeq;)V;
Asciz	(Lscala/collection/IndexedSeqLike;)Ljava/lang/Object;;
Asciz	(Lscala/collection/IndexedSeqLike;)Lscala/collection/Iterator;;
Asciz	(Lscala/collection/IndexedSeqLike;)V;
Asciz	(Lscala/collection/IndexedSeqLike;)Z;
Asciz	(Lscala/collection/IndexedSeqLike;I)Ljava/lang/Object;;
Asciz	(Lscala/collection/IndexedSeqLike;II)Ljava/lang/Object;;
Asciz	(Lscala/collection/IndexedSeqLike;Ljava/lang/Object;II)V;
Asciz	(Lscala/collection/IndexedSeqLike;Ljava/lang/Object;Lscala/Function2;)Ljava/lang/Object;;
Asciz	(Lscala/collection/IndexedSeqLike;Lscala/Function1;)V;
Asciz	(Lscala/collection/IndexedSeqLike;Lscala/Function1;)Z;
Asciz	(Lscala/collection/IndexedSeqLike;Lscala/Function1;I)I;
Asciz	(Lscala/collection/IndexedSeqLike;Lscala/collection/Iterable;)Z;
Asciz	(Lscala/collection/Iterable;)V;
Asciz	(Lscala/collection/Iterable;)Z;
Asciz	(Lscala/collection/IterableLike;)Ljava/lang/Object;;
Asciz	(Lscala/collection/IterableLike;)Lscala/collection/Iterable;;
Asciz	(Lscala/collection/IterableLike;)V;
Asciz	(Lscala/collection/IterableLike;Ljava/lang/Object;)Z;
Asciz	(Lscala/collection/IterableLike;Lscala/collection/Iterable;)Z;
Asciz	(Lscala/collection/Seq;)V;
Asciz	(Lscala/collection/SeqLike;)I;
Asciz	(Lscala/collection/SeqLike;)Ljava/lang/String;;
Asciz	(Lscala/collection/SeqLike;)V;
Asciz	(Lscala/collection/SeqLike;Ljava/lang/Object;)Z;
Asciz	(Lscala/collection/SeqLike;Lscala/Function1;)I;
Asciz	(Lscala/collection/Traversable;)V;
Asciz	(Lscala/collection/TraversableLike;)Ljava/lang/Object;;
Asciz	(Lscala/collection/TraversableLike;)Lscala/collection/immutable/List;;
Asciz	(Lscala/collection/TraversableLike;)V;
Asciz	(Lscala/collection/TraversableLike;)Z;
Asciz	(Lscala/collection/TraversableLike;Ljava/lang/Object;I)V;
Asciz	(Lscala/collection/TraversableLike;Ljava/lang/Object;Lscala/Function2;)Ljava/lang/Object;;
Asciz	(Lscala/collection/TraversableLike;Ljava/lang/String;Ljava/lang/String;Ljava/lang/String;)Ljava/lang/String;;
Asciz	(Lscala/collection/TraversableLike;Lscala/Function1;)Ljava/lang/Object;;
Asciz	(Lscala/collection/TraversableLike;Lscala/Function1;Lscala/collection/generic/CanBuildFrom;)Ljava/lang/Object;;
Asciz	(Lscala/collection/TraversableLike;Lscala/collection/mutable/StringBuilder;Ljava/lang/String;Ljava/lang/String;Ljava/lang/String;)Lscala/collection/mutable/StringBuilder;;
Asciz	(Lscala/collection/TraversableLike;Lscala/math/Numeric;)Ljava/lang/Object;;
Asciz	(Lscala/collection/TraversableLike;Lscala/reflect/ClassManifest;)Ljava/lang/Object;;
Asciz	(Lscala/collection/generic/GenericTraversableTemplate;)Lscala/collection/mutable/Builder;;
Asciz	(Lscala/collection/generic/GenericTraversableTemplate;)V;
Asciz	(Lscala/collection/mutable/ArrayLike;)V;
Asciz	(Lscala/collection/mutable/IndexedSeq;)Lscala/collection/generic/GenericCompanion;;
Asciz	(Lscala/collection/mutable/IndexedSeq;)V;
Asciz	(Lscala/collection/mutable/IndexedSeqLike;)V;
Asciz	(Lscala/collection/mutable/Iterable;)V;
Asciz	(Lscala/collection/mutable/Seq;)V;
Asciz	(Lscala/collection/mutable/StringBuilder;Ljava/lang/String;Ljava/lang/String;Ljava/lang/String;)Lscala/collection/mutable/StringBuilder;;
Asciz	(Lscala/collection/mutable/Traversable;)V;
Asciz	(Lscala/math/Numeric;)Ljava/lang/Object;;
Asciz	(Lscala/reflect/ClassManifest;)Ljava/lang/Object;;
Asciz	(Lscala/reflect/ClassManifest;)V;
Asciz	<T:Ljava/lang/Object;>Ljava/lang/Object;Lscala/collection/mutable/IndexedSeq<TT;>;Lscala/collection/mutable/ArrayLike<TT;Lscala/collection/mutable/WrappedArray<TT;>;>;;
Asciz	<init>;
Asciz	Code;
Asciz	I;
Asciz	InnerClasses;
Asciz	LineNumberTable;
Asciz	Ljava/lang/Object;;
Asciz	Ljava/lang/String;;
Asciz	LocalVariableTable;
Asciz	Lscala/Function1;;
Asciz	Lscala/Function2;;
Asciz	Lscala/collection/Iterable;;
Asciz	Lscala/collection/generic/CanBuildFrom;;
Asciz	Lscala/collection/mutable/StringBuilder;;
Asciz	Lscala/collection/mutable/WrappedArray$;;
Asciz	Lscala/collection/mutable/WrappedArray;;
Asciz	Lscala/math/Numeric;;
Asciz	Lscala/reflect/ClassManifest;;
Asciz	Lscala/runtime/ScalaRunTime$;;
Asciz	MODULE$;
Asciz	ScalaSig;
Asciz	Signature;
Asciz	SourceFile;
Asciz	WrappedArray;
Asciz	WrappedArray.scala;
Asciz	addString;
Asciz	array;
Asciz	array_clone;
Asciz	b;
Asciz	bf;
Asciz	canEqual;
Asciz	clone;
Asciz	companion;
Asciz	copyToArray;
Asciz	drop;
Asciz	elemManifest;
Asciz	end;
Asciz	equals;
Asciz	evidence$1;
Asciz	f;
Asciz	filter;
Asciz	foldLeft;
Asciz	forall;
Asciz	foreach;
Asciz	from;
Asciz	genericBuilder;
Asciz	hashCode;
Asciz	head;
Asciz	isEmpty;
Asciz	iterator;
Asciz	java/lang/Object;
Asciz	len;
Asciz	make;
Asciz	map;
Asciz	mkString;
Asciz	n;
Asciz	newBuilder;
Asciz	nonEmpty;
Asciz	num;
Asciz	ofBoolean;
Asciz	ofByte;
Asciz	ofChar;
Asciz	ofDouble;
Asciz	ofFloat;
Asciz	ofInt;
Asciz	ofLong;
Asciz	ofRef;
Asciz	ofShort;
Asciz	ofUnit;
Asciz	op;
Asciz	p;
Asciz	prefixLength;
Asciz	repr;
Asciz	sameElements;
Asciz	scala$collection$IndexedSeqLike$$super$head;
Asciz	scala$collection$IndexedSeqLike$$super$sameElements;
Asciz	scala$collection$IndexedSeqLike$$super$tail;
Asciz	scala/Function1$class;
Asciz	scala/PartialFunction$class;
Asciz	scala/collection/IndexedSeq$class;
Asciz	scala/collection/IndexedSeqLike$class;
Asciz	scala/collection/Iterable$class;
Asciz	scala/collection/IterableLike$class;
Asciz	scala/collection/Seq$class;
Asciz	scala/collection/SeqLike$class;
Asciz	scala/collection/Traversable$class;
Asciz	scala/collection/TraversableLike;
Asciz	scala/collection/TraversableLike$class;
Asciz	scala/collection/generic/GenericTraversableTemplate$class;
Asciz	scala/collection/mutable/ArrayLike;
Asciz	scala/collection/mutable/ArrayLike$class;
Asciz	scala/collection/mutable/IndexedSeq;
Asciz	scala/collection/mutable/IndexedSeq$class;
Asciz	scala/collection/mutable/IndexedSeqLike$class;
Asciz	scala/collection/mutable/Iterable$class;
Asciz	scala/collection/mutable/Seq$class;
Asciz	scala/collection/mutable/Traversable$class;
Asciz	scala/collection/mutable/WrappedArray;
Asciz	scala/collection/mutable/WrappedArray$;
Asciz	scala/collection/mutable/WrappedArray$ofBoolean;
Asciz	scala/collection/mutable/WrappedArray$ofByte;
Asciz	scala/collection/mutable/WrappedArray$ofChar;
Asciz	scala/collection/mutable/WrappedArray$ofDouble;
Asciz	scala/collection/mutable/WrappedArray$ofFloat;
Asciz	scala/collection/mutable/WrappedArray$ofInt;
Asciz	scala/collection/mutable/WrappedArray$ofLong;
Asciz	scala/collection/mutable/WrappedArray$ofRef;
Asciz	scala/collection/mutable/WrappedArray$ofShort;
Asciz	scala/collection/mutable/WrappedArray$ofUnit;
Asciz	scala/collection/mutable/WrappedArrayBuilder;
Asciz	scala/runtime/ScalaRunTime$;
Asciz	segmentLength;
Asciz	sep;
Asciz	size;
Asciz	slice;
Asciz	start;
Asciz	stringPrefix;
Asciz	sum;
Asciz	tail;
Asciz	that;
Asciz	this;
Asciz	thisCollection;
Asciz	toArray;
Asciz	toIterable;
Asciz	toList;
Asciz	toString;
Asciz	until;
Asciz	update;
Asciz	xs;
Asciz	z;

{
public scala.collection.mutable.WrappedArray();
  Signature: ()V
  Code:
   Stack=1, Locals=1, Args_size=1
	aload_0
	invokespecial	Method java/lang/Object."<init>":()V
	aload_0
	invokestatic	Method scala/collection/TraversableLike$class.$init$:(Lscala/collection/TraversableLike;)V
	aload_0
	invokestatic	Method scala/collection/generic/GenericTraversableTemplate$class.$init$:(Lscala/collection/generic/GenericTraversableTemplate;)V
	aload_0
	invokestatic	Method scala/collection/Traversable$class.$init$:(Lscala/collection/Traversable;)V
	aload_0
	invokestatic	Method scala/collection/mutable/Traversable$class.$init$:(Lscala/collection/mutable/Traversable;)V
	aload_0
	invokestatic	Method scala/collection/IterableLike$class.$init$:(Lscala/collection/IterableLike;)V
	aload_0
	invokestatic	Method scala/collection/Iterable$class.$init$:(Lscala/collection/Iterable;)V
	aload_0
	invokestatic	Method scala/collection/mutable/Iterable$class.$init$:(Lscala/collection/mutable/Iterable;)V
	aload_0
	invokestatic	Method scala/Function1$class.$init$:(Lscala/Function1;)V
	aload_0
	invokestatic	Method scala/PartialFunction$class.$init$:(Lscala/PartialFunction;)V
	aload_0
	invokestatic	Method scala/collection/SeqLike$class.$init$:(Lscala/collection/SeqLike;)V
	aload_0
	invokestatic	Method scala/collection/Seq$class.$init$:(Lscala/collection/Seq;)V
	aload_0
	invokestatic	Method scala/collection/mutable/Seq$class.$init$:(Lscala/collection/mutable/Seq;)V
	aload_0
	invokestatic	Method scala/collection/IndexedSeqLike$class.$init$:(Lscala/collection/IndexedSeqLike;)V
	aload_0
	invokestatic	Method scala/collection/IndexedSeq$class.$init$:(Lscala/collection/IndexedSeq;)V
	aload_0
	invokestatic	Method scala/collection/mutable/IndexedSeqLike$class.$init$:(Lscala/collection/mutable/IndexedSeqLike;)V
	aload_0
	invokestatic	Method scala/collection/mutable/IndexedSeq$class.$init$:(Lscala/collection/mutable/IndexedSeq;)V
	aload_0
	invokestatic	Method scala/collection/mutable/ArrayLike$class.$init$:(Lscala/collection/mutable/ArrayLike;)V
	return
  Labels:
  Signature: length = 0x2
   00 FFFFFFB4 

public scala.collection.mutable.IndexedSeq thisCollection();
  Signature: ()Lscala/collection/mutable/IndexedSeq;
  Code:
   Stack=1, Locals=1, Args_size=1
	aload_0
	invokevirtual	Method thisCollection:()Lscala/collection/mutable/WrappedArray;
	areturn
  Labels:

public scala.collection.IndexedSeq thisCollection();
  Signature: ()Lscala/collection/IndexedSeq;
  Code:
   Stack=1, Locals=1, Args_size=1
	aload_0
	invokevirtual	Method thisCollection:()Lscala/collection/mutable/WrappedArray;
	areturn
  Labels:

public scala.collection.Seq thisCollection();
  Signature: ()Lscala/collection/Seq;
  Code:
   Stack=1, Locals=1, Args_size=1
	aload_0
	invokevirtual	Method thisCollection:()Lscala/collection/mutable/WrappedArray;
	areturn
  Labels:

public scala.collection.Iterable thisCollection();
  Signature: ()Lscala/collection/Iterable;
  Code:
   Stack=1, Locals=1, Args_size=1
	aload_0
	invokevirtual	Method thisCollection:()Lscala/collection/mutable/WrappedArray;
	areturn
  Labels:

public scala.collection.Traversable thisCollection();
  Signature: ()Lscala/collection/Traversable;
  Code:
   Stack=1, Locals=1, Args_size=1
	aload_0
	invokevirtual	Method thisCollection:()Lscala/collection/mutable/WrappedArray;
	areturn
  Labels:

public java.lang.Object clone();
  Signature: ()Ljava/lang/Object;
  Code:
   Stack=1, Locals=1, Args_size=1
	aload_0
	invokevirtual	Method clone:()Lscala/collection/mutable/WrappedArray;
	areturn
  Labels:

public scala.collection.mutable.Builder newBuilder();
  Signature: ()Lscala/collection/mutable/Builder;
  Code:
   Stack=3, Locals=1, Args_size=1
	new	class scala/collection/mutable/WrappedArrayBuilder
	dup
	aload_0
	invokevirtual	Method elemManifest:()Lscala/reflect/ClassManifest;
	invokespecial	Method scala/collection/mutable/WrappedArrayBuilder."<init>":(Lscala/reflect/ClassManifest;)V
	areturn
  Labels:
  Signature: length = 0x2
   00 FFFFFFAE 

public scala.collection.mutable.WrappedArray clone();
  Signature: ()Lscala/collection/mutable/WrappedArray;
  Code:
   Stack=3, Locals=1, Args_size=1
	getstatic	Field scala/collection/mutable/WrappedArray$.MODULE$:Lscala/collection/mutable/WrappedArray$;
	getstatic	Field scala/runtime/ScalaRunTime$.MODULE$:Lscala/runtime/ScalaRunTime$;
	aload_0
	invokevirtual	Method array:()Ljava/lang/Object;
	invokevirtual	Method scala/runtime/ScalaRunTime$.array_clone:(Ljava/lang/Object;)Ljava/lang/Object;
	invokevirtual	Method scala/collection/mutable/WrappedArray$.make:(Ljava/lang/Object;)Lscala/collection/mutable/WrappedArray;
	areturn
  Labels:
  Signature: length = 0x2
   00 FFFFFFB1 

public java.lang.String stringPrefix();
  Signature: ()Ljava/lang/String;
  Code:
   Stack=1, Locals=1, Args_size=1
	ldc	String WrappedArray
	areturn
  Labels:

public abstract java.lang.Object array();
  Signature: ()Ljava/lang/Object;
  Signature: length = 0x2
   00 FFFFFFB6 

public abstract void update(int, java.lang.Object);
  Signature: (ILjava/lang/Object;)V
  Signature: length = 0x2
   00 FFFFFFBA 

public abstract scala.reflect.ClassManifest elemManifest();
  Signature: ()Lscala/reflect/ClassManifest;
  Signature: length = 0x2
   00 FFFFFFB3 

public scala.collection.mutable.WrappedArray thisCollection();
  Signature: ()Lscala/collection/mutable/WrappedArray;
  Code:
   Stack=1, Locals=1, Args_size=1
	aload_0
	areturn
  Labels:
  Signature: length = 0x2
   00 FFFFFFB1 

public scala.collection.mutable.StringBuilder addString(scala.collection.mutable.StringBuilder, java.lang.String, java.lang.String, java.lang.String);
  Signature: (Lscala/collection/mutable/StringBuilder;Ljava/lang/String;Ljava/lang/String;Ljava/lang/String;)Lscala/collection/mutable/StringBuilder;
  Code:
   Stack=5, Locals=5, Args_size=5
	aload_0
	aload_1
	aload_2
	aload_3
	aload	4
	invokestatic	Method scala/collection/TraversableLike$class.addString:(Lscala/collection/TraversableLike;Lscala/collection/mutable/StringBuilder;Ljava/lang/String;Ljava/lang/String;Ljava/lang/String;)Lscala/collection/mutable/StringBuilder;
	areturn
  Labels:
  LocalVariableTable: 
   Start  Length  Slot  Name   Signature
   0      10      0    this       Lscala/collection/mutable/WrappedArray;
   0      10      1    b       Lscala/collection/mutable/StringBuilder;
   0      10      2    start       Ljava/lang/String;
   0      10      3    sep       Ljava/lang/String;
   0      10      4    end       Ljava/lang/String;


public java.lang.String mkString(java.lang.String, java.lang.String, java.lang.String);
  Signature: (Ljava/lang/String;Ljava/lang/String;Ljava/lang/String;)Ljava/lang/String;
  Code:
   Stack=4, Locals=4, Args_size=4
	aload_0
	aload_1
	aload_2
	aload_3
	invokestatic	Method scala/collection/TraversableLike$class.mkString:(Lscala/collection/TraversableLike;Ljava/lang/String;Ljava/lang/String;Ljava/lang/String;)Ljava/lang/String;
	areturn
  Labels:
  LocalVariableTable: 
   Start  Length  Slot  Name   Signature
   0      8      0    this       Lscala/collection/mutable/WrappedArray;
   0      8      1    start       Ljava/lang/String;
   0      8      2    sep       Ljava/lang/String;
   0      8      3    end       Ljava/lang/String;


public scala.collection.immutable.List toList();
  Signature: ()Lscala/collection/immutable/List;
  Code:
   Stack=1, Locals=1, Args_size=1
	aload_0
	invokestatic	Method scala/collection/TraversableLike$class.toList:(Lscala/collection/TraversableLike;)Lscala/collection/immutable/List;
	areturn
  Labels:

public java.lang.Object toArray(scala.reflect.ClassManifest);
  Signature: (Lscala/reflect/ClassManifest;)Ljava/lang/Object;
  Code:
   Stack=2, Locals=2, Args_size=2
	aload_0
	aload_1
	invokestatic	Method scala/collection/TraversableLike$class.toArray:(Lscala/collection/TraversableLike;Lscala/reflect/ClassManifest;)Ljava/lang/Object;
	areturn
  Labels:
  LocalVariableTable: 
   Start  Length  Slot  Name   Signature
   0      6      0    this       Lscala/collection/mutable/WrappedArray;
   0      6      1    evidence$1       Lscala/reflect/ClassManifest;


public void copyToArray(java.lang.Object, int);
  Signature: (Ljava/lang/Object;I)V
  Code:
   Stack=3, Locals=3, Args_size=3
	aload_0
	aload_1
	iload_2
	invokestatic	Method scala/collection/TraversableLike$class.copyToArray:(Lscala/collection/TraversableLike;Ljava/lang/Object;I)V
	return
  Labels:
  LocalVariableTable: 
   Start  Length  Slot  Name   Signature
   0      7      0    this       Lscala/collection/mutable/WrappedArray;
   0      7      1    xs       Ljava/lang/Object;
   0      7      2    start       I


public java.lang.Object sum(scala.math.Numeric);
  Signature: (Lscala/math/Numeric;)Ljava/lang/Object;
  Code:
   Stack=2, Locals=2, Args_size=2
	aload_0
	aload_1
	invokestatic	Method scala/collection/TraversableLike$class.sum:(Lscala/collection/TraversableLike;Lscala/math/Numeric;)Ljava/lang/Object;
	areturn
  Labels:
  LocalVariableTable: 
   Start  Length  Slot  Name   Signature
   0      6      0    this       Lscala/collection/mutable/WrappedArray;
   0      6      1    num       Lscala/math/Numeric;


public java.lang.Object $div$colon(java.lang.Object, scala.Function2);
  Signature: (Ljava/lang/Object;Lscala/Function2;)Ljava/lang/Object;
  Code:
   Stack=3, Locals=3, Args_size=3
	aload_0
	aload_1
	aload_2
	invokestatic	Method scala/collection/TraversableLike$class.$div$colon:(Lscala/collection/TraversableLike;Ljava/lang/Object;Lscala/Function2;)Ljava/lang/Object;
	areturn
  Labels:
  LocalVariableTable: 
   Start  Length  Slot  Name   Signature
   0      7      0    this       Lscala/collection/mutable/WrappedArray;
   0      7      1    z       Ljava/lang/Object;
   0      7      2    op       Lscala/Function2;


public java.lang.Object filter(scala.Function1);
  Signature: (Lscala/Function1;)Ljava/lang/Object;
  Code:
   Stack=2, Locals=2, Args_size=2
	aload_0
	aload_1
	invokestatic	Method scala/collection/TraversableLike$class.filter:(Lscala/collection/TraversableLike;Lscala/Function1;)Ljava/lang/Object;
	areturn
  Labels:
  LocalVariableTable: 
   Start  Length  Slot  Name   Signature
   0      6      0    this       Lscala/collection/mutable/WrappedArray;
   0      6      1    p       Lscala/Function1;


public java.lang.Object map(scala.Function1, scala.collection.generic.CanBuildFrom);
  Signature: (Lscala/Function1;Lscala/collection/generic/CanBuildFrom;)Ljava/lang/Object;
  Code:
   Stack=3, Locals=3, Args_size=3
	aload_0
	aload_1
	aload_2
	invokestatic	Method scala/collection/TraversableLike$class.map:(Lscala/collection/TraversableLike;Lscala/Function1;Lscala/collection/generic/CanBuildFrom;)Ljava/lang/Object;
	areturn
  Labels:
  LocalVariableTable: 
   Start  Length  Slot  Name   Signature
   0      7      0    this       Lscala/collection/mutable/WrappedArray;
   0      7      1    f       Lscala/Function1;
   0      7      2    bf       Lscala/collection/generic/CanBuildFrom;


public boolean nonEmpty();
  Signature: ()Z
  Code:
   Stack=1, Locals=1, Args_size=1
	aload_0
	invokestatic	Method scala/collection/TraversableLike$class.nonEmpty:(Lscala/collection/TraversableLike;)Z
	ireturn
  Labels:

public java.lang.Object repr();
  Signature: ()Ljava/lang/Object;
  Code:
   Stack=1, Locals=1, Args_size=1
	aload_0
	invokestatic	Method scala/collection/TraversableLike$class.repr:(Lscala/collection/TraversableLike;)Ljava/lang/Object;
	areturn
  Labels:

public scala.collection.mutable.Builder genericBuilder();
  Signature: ()Lscala/collection/mutable/Builder;
  Code:
   Stack=1, Locals=1, Args_size=1
	aload_0
	invokestatic	Method scala/collection/generic/GenericTraversableTemplate$class.genericBuilder:(Lscala/collection/generic/GenericTraversableTemplate;)Lscala/collection/mutable/Builder;
	areturn
  Labels:

public boolean canEqual(java.lang.Object);
  Signature: (Ljava/lang/Object;)Z
  Code:
   Stack=2, Locals=2, Args_size=2
	aload_0
	aload_1
	invokestatic	Method scala/collection/IterableLike$class.canEqual:(Lscala/collection/IterableLike;Ljava/lang/Object;)Z
	ireturn
  Labels:
  LocalVariableTable: 
   Start  Length  Slot  Name   Signature
   0      6      0    this       Lscala/collection/mutable/WrappedArray;
   0      6      1    that       Ljava/lang/Object;


public scala.collection.Iterable toIterable();
  Signature: ()Lscala/collection/Iterable;
  Code:
   Stack=1, Locals=1, Args_size=1
	aload_0
	invokestatic	Method scala/collection/IterableLike$class.toIterable:(Lscala/collection/IterableLike;)Lscala/collection/Iterable;
	areturn
  Labels:

public java.lang.String toString();
  Signature: ()Ljava/lang/String;
  Code:
   Stack=1, Locals=1, Args_size=1
	aload_0
	invokestatic	Method scala/collection/SeqLike$class.toString:(Lscala/collection/SeqLike;)Ljava/lang/String;
	areturn
  Labels:

public boolean equals(java.lang.Object);
  Signature: (Ljava/lang/Object;)Z
  Code:
   Stack=2, Locals=2, Args_size=2
	aload_0
	aload_1
	invokestatic	Method scala/collection/SeqLike$class.equals:(Lscala/collection/SeqLike;Ljava/lang/Object;)Z
	ireturn
  Labels:
  LocalVariableTable: 
   Start  Length  Slot  Name   Signature
   0      6      0    this       Lscala/collection/mutable/WrappedArray;
   0      6      1    that       Ljava/lang/Object;


public int hashCode();
  Signature: ()I
  Code:
   Stack=1, Locals=1, Args_size=1
	aload_0
	invokestatic	Method scala/collection/SeqLike$class.hashCode:(Lscala/collection/SeqLike;)I
	ireturn
  Labels:

public int prefixLength(scala.Function1);
  Signature: (Lscala/Function1;)I
  Code:
   Stack=2, Locals=2, Args_size=2
	aload_0
	aload_1
	invokestatic	Method scala/collection/SeqLike$class.prefixLength:(Lscala/collection/SeqLike;Lscala/Function1;)I
	ireturn
  Labels:
  LocalVariableTable: 
   Start  Length  Slot  Name   Signature
   0      6      0    this       Lscala/collection/mutable/WrappedArray;
   0      6      1    p       Lscala/Function1;


public int size();
  Signature: ()I
  Code:
   Stack=1, Locals=1, Args_size=1
	aload_0
	invokestatic	Method scala/collection/SeqLike$class.size:(Lscala/collection/SeqLike;)I
	ireturn
  Labels:

public int segmentLength(scala.Function1, int);
  Signature: (Lscala/Function1;I)I
  Code:
   Stack=3, Locals=3, Args_size=3
	aload_0
	aload_1
	iload_2
	invokestatic	Method scala/collection/IndexedSeqLike$class.segmentLength:(Lscala/collection/IndexedSeqLike;Lscala/Function1;I)I
	ireturn
  Labels:
  LocalVariableTable: 
   Start  Length  Slot  Name   Signature
   0      7      0    this       Lscala/collection/mutable/WrappedArray;
   0      7      1    p       Lscala/Function1;
   0      7      2    from       I


public void copyToArray(java.lang.Object, int, int);
  Signature: (Ljava/lang/Object;II)V
  Code:
   Stack=4, Locals=4, Args_size=4
	aload_0
	aload_1
	iload_2
	iload_3
	invokestatic	Method scala/collection/IndexedSeqLike$class.copyToArray:(Lscala/collection/IndexedSeqLike;Ljava/lang/Object;II)V
	return
  Labels:
  LocalVariableTable: 
   Start  Length  Slot  Name   Signature
   0      8      0    this       Lscala/collection/mutable/WrappedArray;
   0      8      1    xs       Ljava/lang/Object;
   0      8      2    start       I
   0      8      3    len       I


public boolean sameElements(scala.collection.Iterable);
  Signature: (Lscala/collection/Iterable;)Z
  Code:
   Stack=2, Locals=2, Args_size=2
	aload_0
	aload_1
	invokestatic	Method scala/collection/IndexedSeqLike$class.sameElements:(Lscala/collection/IndexedSeqLike;Lscala/collection/Iterable;)Z
	ireturn
  Labels:
  LocalVariableTable: 
   Start  Length  Slot  Name   Signature
   0      6      0    this       Lscala/collection/mutable/WrappedArray;
   0      6      1    that       Lscala/collection/Iterable;


public java.lang.Object drop(int);
  Signature: (I)Ljava/lang/Object;
  Code:
   Stack=2, Locals=2, Args_size=2
	aload_0
	iload_1
	invokestatic	Method scala/collection/IndexedSeqLike$class.drop:(Lscala/collection/IndexedSeqLike;I)Ljava/lang/Object;
	areturn
  Labels:
  LocalVariableTable: 
   Start  Length  Slot  Name   Signature
   0      6      0    this       Lscala/collection/mutable/WrappedArray;
   0      6      1    n       I


public java.lang.Object tail();
  Signature: ()Ljava/lang/Object;
  Code:
   Stack=1, Locals=1, Args_size=1
	aload_0
	invokestatic	Method scala/collection/IndexedSeqLike$class.tail:(Lscala/collection/IndexedSeqLike;)Ljava/lang/Object;
	areturn
  Labels:

public java.lang.Object head();
  Signature: ()Ljava/lang/Object;
  Code:
   Stack=1, Locals=1, Args_size=1
	aload_0
	invokestatic	Method scala/collection/IndexedSeqLike$class.head:(Lscala/collection/IndexedSeqLike;)Ljava/lang/Object;
	areturn
  Labels:

public java.lang.Object slice(int, int);
  Signature: (II)Ljava/lang/Object;
  Code:
   Stack=3, Locals=3, Args_size=3
	aload_0
	iload_1
	iload_2
	invokestatic	Method scala/collection/IndexedSeqLike$class.slice:(Lscala/collection/IndexedSeqLike;II)Ljava/lang/Object;
	areturn
  Labels:
  LocalVariableTable: 
   Start  Length  Slot  Name   Signature
   0      7      0    this       Lscala/collection/mutable/WrappedArray;
   0      7      1    from       I
   0      7      2    until       I


public java.lang.Object foldLeft(java.lang.Object, scala.Function2);
  Signature: (Ljava/lang/Object;Lscala/Function2;)Ljava/lang/Object;
  Code:
   Stack=3, Locals=3, Args_size=3
	aload_0
	aload_1
	aload_2
	invokestatic	Method scala/collection/IndexedSeqLike$class.foldLeft:(Lscala/collection/IndexedSeqLike;Ljava/lang/Object;Lscala/Function2;)Ljava/lang/Object;
	areturn
  Labels:
  LocalVariableTable: 
   Start  Length  Slot  Name   Signature
   0      7      0    this       Lscala/collection/mutable/WrappedArray;
   0      7      1    z       Ljava/lang/Object;
   0      7      2    op       Lscala/Function2;


public boolean forall(scala.Function1);
  Signature: (Lscala/Function1;)Z
  Code:
   Stack=2, Locals=2, Args_size=2
	aload_0
	aload_1
	invokestatic	Method scala/collection/IndexedSeqLike$class.forall:(Lscala/collection/IndexedSeqLike;Lscala/Function1;)Z
	ireturn
  Labels:
  LocalVariableTable: 
   Start  Length  Slot  Name   Signature
   0      6      0    this       Lscala/collection/mutable/WrappedArray;
   0      6      1    p       Lscala/Function1;


public void foreach(scala.Function1);
  Signature: (Lscala/Function1;)V
  Code:
   Stack=2, Locals=2, Args_size=2
	aload_0
	aload_1
	invokestatic	Method scala/collection/IndexedSeqLike$class.foreach:(Lscala/collection/IndexedSeqLike;Lscala/Function1;)V
	return
  Labels:
  LocalVariableTable: 
   Start  Length  Slot  Name   Signature
   0      6      0    this       Lscala/collection/mutable/WrappedArray;
   0      6      1    f       Lscala/Function1;


public boolean isEmpty();
  Signature: ()Z
  Code:
   Stack=1, Locals=1, Args_size=1
	aload_0
	invokestatic	Method scala/collection/IndexedSeqLike$class.isEmpty:(Lscala/collection/IndexedSeqLike;)Z
	ireturn
  Labels:

public scala.collection.Iterator iterator();
  Signature: ()Lscala/collection/Iterator;
  Code:
   Stack=1, Locals=1, Args_size=1
	aload_0
	invokestatic	Method scala/collection/IndexedSeqLike$class.iterator:(Lscala/collection/IndexedSeqLike;)Lscala/collection/Iterator;
	areturn
  Labels:

public final boolean scala$collection$IndexedSeqLike$$super$sameElements(scala.collection.Iterable);
  Signature: (Lscala/collection/Iterable;)Z
  Code:
   Stack=2, Locals=2, Args_size=2
	aload_0
	aload_1
	invokestatic	Method scala/collection/IterableLike$class.sameElements:(Lscala/collection/IterableLike;Lscala/collection/Iterable;)Z
	ireturn
  Labels:
  LocalVariableTable: 
   Start  Length  Slot  Name   Signature
   0      6      0    this       Lscala/collection/mutable/WrappedArray;
   0      6      1    that       Lscala/collection/Iterable;


public final java.lang.Object scala$collection$IndexedSeqLike$$super$tail();
  Signature: ()Ljava/lang/Object;
  Code:
   Stack=1, Locals=1, Args_size=1
	aload_0
	invokestatic	Method scala/collection/TraversableLike$class.tail:(Lscala/collection/TraversableLike;)Ljava/lang/Object;
	areturn
  Labels:

public final java.lang.Object scala$collection$IndexedSeqLike$$super$head();
  Signature: ()Ljava/lang/Object;
  Code:
   Stack=1, Locals=1, Args_size=1
	aload_0
	invokestatic	Method scala/collection/IterableLike$class.head:(Lscala/collection/IterableLike;)Ljava/lang/Object;
	areturn
  Labels:

public scala.collection.generic.GenericCompanion companion();
  Signature: ()Lscala/collection/generic/GenericCompanion;
  Code:
   Stack=1, Locals=1, Args_size=1
	aload_0
	invokestatic	Method scala/collection/mutable/IndexedSeq$class.companion:(Lscala/collection/mutable/IndexedSeq;)Lscala/collection/generic/GenericCompanion;
	areturn
  Labels:

}

