Compiled from "RegexTest.scala"
public final class scala.util.parsing.combinator.testing.RegexTest extends java.lang.Object
  SourceFile: "RegexTest.scala"
  ScalaSig: length = 0x239
   05 00 5F 07 05 01 02 FFFFFF88 02 0D 01 09 52 65 67 65
   78 54 65 73 74 0A 02 03 04 01 07 74 65 73 74 69
   6E 67 0A 02 05 06 01 0A 63 6F 6D 62 69 6E 61 74
   6F 72 0A 02 07 08 01 07 70 61 72 73 69 6E 67 0A
   02 09 0A 01 04 75 74 69 6C 0A 01 0B 01 05 73 63
   61 6C 61 03 00 10 02 0E 0F 0D 01 02 06 08 10 02
   FFFFFF84 FFFFFF80 FFFFFF80 FFFFFF88 02 11 02 09 52 65 67 65 78 54 65 73
   74 13 04 0F 12 1A 1E 10 02 13 18 0D 01 14 0A 02
   15 16 01 04 6C 61 6E 67 0A 01 17 01 04 6A 61 76
   61 09 02 19 14 02 06 4F 62 6A 65 63 74 10 02 1B
   1C 0D 01 04 09 02 1D 04 02 0C 52 65 67 65 78 50
   61 72 73 65 72 73 10 02 1F 20 0D 01 0A 09 02 21
   0A 02 0B 53 63 61 6C 61 4F 62 6A 65 63 74 08 05
   23 0F FFFFFF84 00 24 01 06 3C 69 6E 69 74 3E 14 01 0D
   08 07 26 0F FFFFFFC2 FFFFFF80 FFFFFF84 00 27 01 05 69 64 65 6E 74
   15 01 28 10 03 29 2A 2E 0D 01 0F 09 02 2B 2C 02
   06 50 61 72 73 65 72 09 02 2D 04 02 07 50 61 72
   73 65 72 73 10 02 1F 2F 09 02 30 0A 02 03 41 6E
   79 08 06 32 0F FFFFFFA0 FFFFFF80 04 28 01 06 69 64 65 6E 74
   20 08 07 34 0F FFFFFFC2 FFFFFF80 FFFFFF84 00 27 01 06 6E 75 6D 62
   65 72 08 06 36 0F FFFFFFA0 FFFFFF80 04 28 01 07 6E 75 6D 62
   65 72 20 08 07 38 0F FFFFFFC2 FFFFFF80 FFFFFF84 00 27 01 06 73 74
   72 69 6E 67 08 06 3A 0F FFFFFFA0 FFFFFF80 04 28 01 07 73 74
   72 69 6E 67 20 08 07 3C 0F FFFFFFC2 FFFFFF80 FFFFFF84 00 3D 01 06
   70 61 72 73 65 72 15 01 3E 10 03 29 2A 3F 10 03
   40 48 2E 0E 02 41 46 0E 02 42 45 0D 01 43 0A 02
   44 0C 01 06 3C 72 6F 6F 74 3E 09 01 0B 09 02 47
   0A 01 07 70 61 63 6B 61 67 65 09 02 49 4A 02 04
   4C 69 73 74 0A 02 47 0A 08 06 4C 0F FFFFFFA0 FFFFFF80 04 3E
   01 07 70 61 72 73 65 72 20 08 05 4E 0F FFFFFF84 00 4F
   01 04 6D 61 69 6E 14 02 50 53 10 02 1F 51 09 02
   52 0A 02 04 55 6E 69 74 08 05 54 4D FFFFFFC0 00 55 01
   04 61 72 67 73 10 03 1F 56 58 09 02 57 0A 02 05
   41 72 72 61 79 10 02 59 5C 0E 02 1F 5A 09 02 5B
   0A 01 06 50 72 65 64 65 66 09 02 5D 5E 02 06 53
   74 72 69 6E 67 0A 02 5B 0A 
  InnerClass: 
   public abstract Parser=class scala/util/parsing/combinator/Parsers$Parser of class scala/util/parsing/combinator/Parsers
   public abstract NoSuccess=class scala/util/parsing/combinator/Parsers$NoSuccess of class scala/util/parsing/combinator/Parsers
   public abstract ParseResult=class scala/util/parsing/combinator/Parsers$ParseResult of class scala/util/parsing/combinator/Parsers
   public final $anonfun$5=class scala/util/parsing/combinator/testing/RegexTest$$anonfun$5 of class scala/util/parsing/combinator/testing/RegexTest
   public final $anonfun$4=class scala/util/parsing/combinator/testing/RegexTest$$anonfun$4 of class scala/util/parsing/combinator/testing/RegexTest
   public final $anonfun$3=class scala/util/parsing/combinator/testing/RegexTest$$anonfun$3 of class scala/util/parsing/combinator/testing/RegexTest
   public final $anonfun$2=class scala/util/parsing/combinator/testing/RegexTest$$anonfun$2 of class scala/util/parsing/combinator/testing/RegexTest
   public final $anonfun$1=class scala/util/parsing/combinator/testing/RegexTest$$anonfun$1 of class scala/util/parsing/combinator/testing/RegexTest
  minor version: 0
  major version: 49
  Constant pool:
Asciz	SourceFile;
Asciz	RegexTest.scala;
Asciz	mkList;
Asciz	()Lscala/Function1;;
Asciz	Code;
Asciz	scala/util/parsing/combinator/testing/RegexTest$;
class	scala/util/parsing/combinator/testing/RegexTest$
Asciz	MODULE$;
Asciz	Lscala/util/parsing/combinator/testing/RegexTest$;;
NameAndType	MODULE$:Lscala/util/parsing/combinator/testing/RegexTest$;
Field	scala/util/parsing/combinator/testing/RegexTest$.MODULE$:Lscala/util/parsing/combinator/testing/RegexTest$;
NameAndType	mkList:()Lscala/Function1;
Method	scala/util/parsing/combinator/testing/RegexTest$.mkList:()Lscala/Function1;
Asciz	positioned;
Asciz	(Lscala/Function0;)Lscala/util/parsing/combinator/Parsers$Parser;;
NameAndType	positioned:(Lscala/Function0;)Lscala/util/parsing/combinator/Parsers$Parser;
Method	scala/util/parsing/combinator/testing/RegexTest$.positioned:(Lscala/Function0;)Lscala/util/parsing/combinator/Parsers$Parser;
Asciz	guard;
NameAndType	guard:(Lscala/Function0;)Lscala/util/parsing/combinator/Parsers$Parser;
Method	scala/util/parsing/combinator/testing/RegexTest$.guard:(Lscala/Function0;)Lscala/util/parsing/combinator/Parsers$Parser;
Asciz	not;
NameAndType	not:(Lscala/Function0;)Lscala/util/parsing/combinator/Parsers$Parser;
Method	scala/util/parsing/combinator/testing/RegexTest$.not:(Lscala/Function0;)Lscala/util/parsing/combinator/Parsers$Parser;
Asciz	opt;
NameAndType	opt:(Lscala/Function0;)Lscala/util/parsing/combinator/Parsers$Parser;
Method	scala/util/parsing/combinator/testing/RegexTest$.opt:(Lscala/Function0;)Lscala/util/parsing/combinator/Parsers$Parser;
Asciz	chainr1;
Asciz	(Lscala/Function0;Lscala/Function0;Lscala/Function2;Ljava/lang/Object;)Lscala/util/parsing/combinator/Parsers$Parser;;
NameAndType	chainr1:(Lscala/Function0;Lscala/Function0;Lscala/Function2;Ljava/lang/Object;)Lscala/util/parsing/combinator/Parsers$Parser;
Method	scala/util/parsing/combinator/testing/RegexTest$.chainr1:(Lscala/Function0;Lscala/Function0;Lscala/Function2;Ljava/lang/Object;)Lscala/util/parsing/combinator/Parsers$Parser;
Asciz	chainl1;
Asciz	(Lscala/Function0;Lscala/Function0;Lscala/Function0;)Lscala/util/parsing/combinator/Parsers$Parser;;
NameAndType	chainl1:(Lscala/Function0;Lscala/Function0;Lscala/Function0;)Lscala/util/parsing/combinator/Parsers$Parser;
Method	scala/util/parsing/combinator/testing/RegexTest$.chainl1:(Lscala/Function0;Lscala/Function0;Lscala/Function0;)Lscala/util/parsing/combinator/Parsers$Parser;
Asciz	(Lscala/Function0;Lscala/Function0;)Lscala/util/parsing/combinator/Parsers$Parser;;
NameAndType	chainl1:(Lscala/Function0;Lscala/Function0;)Lscala/util/parsing/combinator/Parsers$Parser;
Method	scala/util/parsing/combinator/testing/RegexTest$.chainl1:(Lscala/Function0;Lscala/Function0;)Lscala/util/parsing/combinator/Parsers$Parser;
Asciz	rep1sep;
NameAndType	rep1sep:(Lscala/Function0;Lscala/Function0;)Lscala/util/parsing/combinator/Parsers$Parser;
Method	scala/util/parsing/combinator/testing/RegexTest$.rep1sep:(Lscala/Function0;Lscala/Function0;)Lscala/util/parsing/combinator/Parsers$Parser;
Asciz	repN;
Asciz	(ILscala/Function0;)Lscala/util/parsing/combinator/Parsers$Parser;;
NameAndType	repN:(ILscala/Function0;)Lscala/util/parsing/combinator/Parsers$Parser;
Method	scala/util/parsing/combinator/testing/RegexTest$.repN:(ILscala/Function0;)Lscala/util/parsing/combinator/Parsers$Parser;
Asciz	rep1;
NameAndType	rep1:(Lscala/Function0;Lscala/Function0;)Lscala/util/parsing/combinator/Parsers$Parser;
Method	scala/util/parsing/combinator/testing/RegexTest$.rep1:(Lscala/Function0;Lscala/Function0;)Lscala/util/parsing/combinator/Parsers$Parser;
NameAndType	rep1:(Lscala/Function0;)Lscala/util/parsing/combinator/Parsers$Parser;
Method	scala/util/parsing/combinator/testing/RegexTest$.rep1:(Lscala/Function0;)Lscala/util/parsing/combinator/Parsers$Parser;
Asciz	repsep;
NameAndType	repsep:(Lscala/Function0;Lscala/Function0;)Lscala/util/parsing/combinator/Parsers$Parser;
Method	scala/util/parsing/combinator/testing/RegexTest$.repsep:(Lscala/Function0;Lscala/Function0;)Lscala/util/parsing/combinator/Parsers$Parser;
Asciz	rep;
NameAndType	rep:(Lscala/Function0;)Lscala/util/parsing/combinator/Parsers$Parser;
Method	scala/util/parsing/combinator/testing/RegexTest$.rep:(Lscala/Function0;)Lscala/util/parsing/combinator/Parsers$Parser;
Asciz	log;
Asciz	(Lscala/Function0;Ljava/lang/String;)Lscala/util/parsing/combinator/Parsers$Parser;;
NameAndType	log:(Lscala/Function0;Ljava/lang/String;)Lscala/util/parsing/combinator/Parsers$Parser;
Method	scala/util/parsing/combinator/testing/RegexTest$.log:(Lscala/Function0;Ljava/lang/String;)Lscala/util/parsing/combinator/Parsers$Parser;
Asciz	success;
Asciz	(Ljava/lang/Object;)Lscala/util/parsing/combinator/Parsers$Parser;;
NameAndType	success:(Ljava/lang/Object;)Lscala/util/parsing/combinator/Parsers$Parser;
Method	scala/util/parsing/combinator/testing/RegexTest$.success:(Ljava/lang/Object;)Lscala/util/parsing/combinator/Parsers$Parser;
Asciz	err;
Asciz	(Ljava/lang/String;)Lscala/util/parsing/combinator/Parsers$Parser;;
NameAndType	err:(Ljava/lang/String;)Lscala/util/parsing/combinator/Parsers$Parser;
Method	scala/util/parsing/combinator/testing/RegexTest$.err:(Ljava/lang/String;)Lscala/util/parsing/combinator/Parsers$Parser;
Asciz	failure;
NameAndType	failure:(Ljava/lang/String;)Lscala/util/parsing/combinator/Parsers$Parser;
Method	scala/util/parsing/combinator/testing/RegexTest$.failure:(Ljava/lang/String;)Lscala/util/parsing/combinator/Parsers$Parser;
Asciz	acceptSeq;
Asciz	(Ljava/lang/Object;Lscala/Function1;)Lscala/util/parsing/combinator/Parsers$Parser;;
NameAndType	acceptSeq:(Ljava/lang/Object;Lscala/Function1;)Lscala/util/parsing/combinator/Parsers$Parser;
Method	scala/util/parsing/combinator/testing/RegexTest$.acceptSeq:(Ljava/lang/Object;Lscala/Function1;)Lscala/util/parsing/combinator/Parsers$Parser;
Asciz	acceptMatch;
Asciz	(Ljava/lang/String;Lscala/PartialFunction;)Lscala/util/parsing/combinator/Parsers$Parser;;
NameAndType	acceptMatch:(Ljava/lang/String;Lscala/PartialFunction;)Lscala/util/parsing/combinator/Parsers$Parser;
Method	scala/util/parsing/combinator/testing/RegexTest$.acceptMatch:(Ljava/lang/String;Lscala/PartialFunction;)Lscala/util/parsing/combinator/Parsers$Parser;
Asciz	acceptIf;
Asciz	(Lscala/Function1;Lscala/Function1;)Lscala/util/parsing/combinator/Parsers$Parser;;
NameAndType	acceptIf:(Lscala/Function1;Lscala/Function1;)Lscala/util/parsing/combinator/Parsers$Parser;
Method	scala/util/parsing/combinator/testing/RegexTest$.acceptIf:(Lscala/Function1;Lscala/Function1;)Lscala/util/parsing/combinator/Parsers$Parser;
Asciz	accept;
NameAndType	accept:(Ljava/lang/String;Lscala/PartialFunction;)Lscala/util/parsing/combinator/Parsers$Parser;
Method	scala/util/parsing/combinator/testing/RegexTest$.accept:(Ljava/lang/String;Lscala/PartialFunction;)Lscala/util/parsing/combinator/Parsers$Parser;
NameAndType	accept:(Ljava/lang/Object;Lscala/Function1;)Lscala/util/parsing/combinator/Parsers$Parser;
Method	scala/util/parsing/combinator/testing/RegexTest$.accept:(Ljava/lang/Object;Lscala/Function1;)Lscala/util/parsing/combinator/Parsers$Parser;
NameAndType	accept:(Ljava/lang/Object;)Lscala/util/parsing/combinator/Parsers$Parser;
Method	scala/util/parsing/combinator/testing/RegexTest$.accept:(Ljava/lang/Object;)Lscala/util/parsing/combinator/Parsers$Parser;
Asciz	elem;
NameAndType	elem:(Ljava/lang/Object;)Lscala/util/parsing/combinator/Parsers$Parser;
Method	scala/util/parsing/combinator/testing/RegexTest$.elem:(Ljava/lang/Object;)Lscala/util/parsing/combinator/Parsers$Parser;
Asciz	(Ljava/lang/String;Lscala/Function1;)Lscala/util/parsing/combinator/Parsers$Parser;;
NameAndType	elem:(Ljava/lang/String;Lscala/Function1;)Lscala/util/parsing/combinator/Parsers$Parser;
Method	scala/util/parsing/combinator/testing/RegexTest$.elem:(Ljava/lang/String;Lscala/Function1;)Lscala/util/parsing/combinator/Parsers$Parser;
Asciz	commit;
NameAndType	commit:(Lscala/Function0;)Lscala/util/parsing/combinator/Parsers$Parser;
Method	scala/util/parsing/combinator/testing/RegexTest$.commit:(Lscala/Function0;)Lscala/util/parsing/combinator/Parsers$Parser;
Asciz	OnceParser;
Asciz	(Lscala/Function1;)Lscala/util/parsing/combinator/Parsers$Parser;;
NameAndType	OnceParser:(Lscala/Function1;)Lscala/util/parsing/combinator/Parsers$Parser;
Method	scala/util/parsing/combinator/testing/RegexTest$.OnceParser:(Lscala/Function1;)Lscala/util/parsing/combinator/Parsers$Parser;
Asciz	Parser;
NameAndType	Parser:(Lscala/Function1;)Lscala/util/parsing/combinator/Parsers$Parser;
Method	scala/util/parsing/combinator/testing/RegexTest$.Parser:(Lscala/Function1;)Lscala/util/parsing/combinator/Parsers$Parser;
Asciz	lastNoSuccess_$eq;
Asciz	(Lscala/util/parsing/combinator/Parsers$NoSuccess;)V;
NameAndType	lastNoSuccess_$eq:(Lscala/util/parsing/combinator/Parsers$NoSuccess;)V
Method	scala/util/parsing/combinator/testing/RegexTest$.lastNoSuccess_$eq:(Lscala/util/parsing/combinator/Parsers$NoSuccess;)V
Asciz	lastNoSuccess;
Asciz	()Lscala/util/parsing/combinator/Parsers$NoSuccess;;
NameAndType	lastNoSuccess:()Lscala/util/parsing/combinator/Parsers$NoSuccess;
Method	scala/util/parsing/combinator/testing/RegexTest$.lastNoSuccess:()Lscala/util/parsing/combinator/Parsers$NoSuccess;
Asciz	parseAll;
Asciz	(Lscala/util/parsing/combinator/Parsers$Parser;Ljava/lang/CharSequence;)Lscala/util/parsing/combinator/Parsers$ParseResult;;
NameAndType	parseAll:(Lscala/util/parsing/combinator/Parsers$Parser;Ljava/lang/CharSequence;)Lscala/util/parsing/combinator/Parsers$ParseResult;
Method	scala/util/parsing/combinator/testing/RegexTest$.parseAll:(Lscala/util/parsing/combinator/Parsers$Parser;Ljava/lang/CharSequence;)Lscala/util/parsing/combinator/Parsers$ParseResult;
Asciz	(Lscala/util/parsing/combinator/Parsers$Parser;Ljava/io/Reader;)Lscala/util/parsing/combinator/Parsers$ParseResult;;
NameAndType	parseAll:(Lscala/util/parsing/combinator/Parsers$Parser;Ljava/io/Reader;)Lscala/util/parsing/combinator/Parsers$ParseResult;
Method	scala/util/parsing/combinator/testing/RegexTest$.parseAll:(Lscala/util/parsing/combinator/Parsers$Parser;Ljava/io/Reader;)Lscala/util/parsing/combinator/Parsers$ParseResult;
Asciz	(Lscala/util/parsing/combinator/Parsers$Parser;Lscala/util/parsing/input/Reader;)Lscala/util/parsing/combinator/Parsers$ParseResult;;
NameAndType	parseAll:(Lscala/util/parsing/combinator/Parsers$Parser;Lscala/util/parsing/input/Reader;)Lscala/util/parsing/combinator/Parsers$ParseResult;
Method	scala/util/parsing/combinator/testing/RegexTest$.parseAll:(Lscala/util/parsing/combinator/Parsers$Parser;Lscala/util/parsing/input/Reader;)Lscala/util/parsing/combinator/Parsers$ParseResult;
Asciz	parse;
NameAndType	parse:(Lscala/util/parsing/combinator/Parsers$Parser;Ljava/io/Reader;)Lscala/util/parsing/combinator/Parsers$ParseResult;
Method	scala/util/parsing/combinator/testing/RegexTest$.parse:(Lscala/util/parsing/combinator/Parsers$Parser;Ljava/io/Reader;)Lscala/util/parsing/combinator/Parsers$ParseResult;
NameAndType	parse:(Lscala/util/parsing/combinator/Parsers$Parser;Ljava/lang/CharSequence;)Lscala/util/parsing/combinator/Parsers$ParseResult;
Method	scala/util/parsing/combinator/testing/RegexTest$.parse:(Lscala/util/parsing/combinator/Parsers$Parser;Ljava/lang/CharSequence;)Lscala/util/parsing/combinator/Parsers$ParseResult;
NameAndType	parse:(Lscala/util/parsing/combinator/Parsers$Parser;Lscala/util/parsing/input/Reader;)Lscala/util/parsing/combinator/Parsers$ParseResult;
Method	scala/util/parsing/combinator/testing/RegexTest$.parse:(Lscala/util/parsing/combinator/Parsers$Parser;Lscala/util/parsing/input/Reader;)Lscala/util/parsing/combinator/Parsers$ParseResult;
Asciz	phrase;
Asciz	(Lscala/util/parsing/combinator/Parsers$Parser;)Lscala/util/parsing/combinator/Parsers$Parser;;
NameAndType	phrase:(Lscala/util/parsing/combinator/Parsers$Parser;)Lscala/util/parsing/combinator/Parsers$Parser;
Method	scala/util/parsing/combinator/testing/RegexTest$.phrase:(Lscala/util/parsing/combinator/Parsers$Parser;)Lscala/util/parsing/combinator/Parsers$Parser;
Asciz	regex;
Asciz	(Lscala/util/matching/Regex;)Lscala/util/parsing/combinator/Parsers$Parser;;
NameAndType	regex:(Lscala/util/matching/Regex;)Lscala/util/parsing/combinator/Parsers$Parser;
Method	scala/util/parsing/combinator/testing/RegexTest$.regex:(Lscala/util/matching/Regex;)Lscala/util/parsing/combinator/Parsers$Parser;
Asciz	literal;
NameAndType	literal:(Ljava/lang/String;)Lscala/util/parsing/combinator/Parsers$Parser;
Method	scala/util/parsing/combinator/testing/RegexTest$.literal:(Ljava/lang/String;)Lscala/util/parsing/combinator/Parsers$Parser;
Asciz	skipWhitespace;
Asciz	()Z;
NameAndType	skipWhitespace:()Z
Method	scala/util/parsing/combinator/testing/RegexTest$.skipWhitespace:()Z
Asciz	scala$util$parsing$combinator$RegexParsers$_setter_$whiteSpace_$eq;
Asciz	(Lscala/util/matching/Regex;)V;
NameAndType	scala$util$parsing$combinator$RegexParsers$_setter_$whiteSpace_$eq:(Lscala/util/matching/Regex;)V
Method	scala/util/parsing/combinator/testing/RegexTest$.scala$util$parsing$combinator$RegexParsers$_setter_$whiteSpace_$eq:(Lscala/util/matching/Regex;)V
Asciz	scala$util$parsing$combinator$RegexParsers$$super$phrase;
NameAndType	scala$util$parsing$combinator$RegexParsers$$super$phrase:(Lscala/util/parsing/combinator/Parsers$Parser;)Lscala/util/parsing/combinator/Parsers$Parser;
Method	scala/util/parsing/combinator/testing/RegexTest$.scala$util$parsing$combinator$RegexParsers$$super$phrase:(Lscala/util/parsing/combinator/Parsers$Parser;)Lscala/util/parsing/combinator/Parsers$Parser;
Asciz	main;
Asciz	([Ljava/lang/String;)V;
NameAndType	main:([Ljava/lang/String;)V
Method	scala/util/parsing/combinator/testing/RegexTest$.main:([Ljava/lang/String;)V
Asciz	parser;
Asciz	()Lscala/util/parsing/combinator/Parsers$Parser;;
NameAndType	parser:()Lscala/util/parsing/combinator/Parsers$Parser;
Method	scala/util/parsing/combinator/testing/RegexTest$.parser:()Lscala/util/parsing/combinator/Parsers$Parser;
Asciz	()Lscala/util/parsing/combinator/Parsers$Parser<Lscala/collection/immutable/List<Ljava/lang/Object;>;>;;
Asciz	Signature;
Asciz	string;
NameAndType	string:()Lscala/util/parsing/combinator/Parsers$Parser;
Method	scala/util/parsing/combinator/testing/RegexTest$.string:()Lscala/util/parsing/combinator/Parsers$Parser;
Asciz	()Lscala/util/parsing/combinator/Parsers$Parser<Ljava/lang/Object;>;;
Asciz	number;
NameAndType	number:()Lscala/util/parsing/combinator/Parsers$Parser;
Method	scala/util/parsing/combinator/testing/RegexTest$.number:()Lscala/util/parsing/combinator/Parsers$Parser;
Asciz	ident;
NameAndType	ident:()Lscala/util/parsing/combinator/Parsers$Parser;
Method	scala/util/parsing/combinator/testing/RegexTest$.ident:()Lscala/util/parsing/combinator/Parsers$Parser;
Asciz	ScalaSig;
Asciz	InnerClasses;
Asciz	scala/util/parsing/combinator/Parsers$Parser;
class	scala/util/parsing/combinator/Parsers$Parser
Asciz	scala/util/parsing/combinator/Parsers;
class	scala/util/parsing/combinator/Parsers
Asciz	scala/util/parsing/combinator/Parsers$NoSuccess;
class	scala/util/parsing/combinator/Parsers$NoSuccess
Asciz	NoSuccess;
Asciz	scala/util/parsing/combinator/Parsers$ParseResult;
class	scala/util/parsing/combinator/Parsers$ParseResult
Asciz	ParseResult;
Asciz	scala/util/parsing/combinator/testing/RegexTest$$anonfun$5;
class	scala/util/parsing/combinator/testing/RegexTest$$anonfun$5
Asciz	scala/util/parsing/combinator/testing/RegexTest;
class	scala/util/parsing/combinator/testing/RegexTest
Asciz	$anonfun$5;
Asciz	scala/util/parsing/combinator/testing/RegexTest$$anonfun$4;
class	scala/util/parsing/combinator/testing/RegexTest$$anonfun$4
Asciz	$anonfun$4;
Asciz	scala/util/parsing/combinator/testing/RegexTest$$anonfun$3;
class	scala/util/parsing/combinator/testing/RegexTest$$anonfun$3
Asciz	$anonfun$3;
Asciz	scala/util/parsing/combinator/testing/RegexTest$$anonfun$2;
class	scala/util/parsing/combinator/testing/RegexTest$$anonfun$2
Asciz	$anonfun$2;
Asciz	scala/util/parsing/combinator/testing/RegexTest$$anonfun$1;
class	scala/util/parsing/combinator/testing/RegexTest$$anonfun$1
Asciz	$anonfun$1;
Asciz	java/lang/Object;
class	java/lang/Object

{
public static final scala.Function1 mkList();
  Signature: ()Lscala/Function1;
  Code:
   Stack=1, Locals=0, Args_size=0
	getstatic	Field scala/util/parsing/combinator/testing/RegexTest$.MODULE$:Lscala/util/parsing/combinator/testing/RegexTest$;
	invokevirtual	Method scala/util/parsing/combinator/testing/RegexTest$.mkList:()Lscala/Function1;
	areturn
  Labels:

public static final scala.util.parsing.combinator.Parsers$Parser positioned(scala.Function0);
  Signature: (Lscala/Function0;)Lscala/util/parsing/combinator/Parsers$Parser;
  Code:
   Stack=2, Locals=1, Args_size=1
	getstatic	Field scala/util/parsing/combinator/testing/RegexTest$.MODULE$:Lscala/util/parsing/combinator/testing/RegexTest$;
	aload_0
	invokevirtual	Method scala/util/parsing/combinator/testing/RegexTest$.positioned:(Lscala/Function0;)Lscala/util/parsing/combinator/Parsers$Parser;
	areturn
  Labels:

public static final scala.util.parsing.combinator.Parsers$Parser guard(scala.Function0);
  Signature: (Lscala/Function0;)Lscala/util/parsing/combinator/Parsers$Parser;
  Code:
   Stack=2, Locals=1, Args_size=1
	getstatic	Field scala/util/parsing/combinator/testing/RegexTest$.MODULE$:Lscala/util/parsing/combinator/testing/RegexTest$;
	aload_0
	invokevirtual	Method scala/util/parsing/combinator/testing/RegexTest$.guard:(Lscala/Function0;)Lscala/util/parsing/combinator/Parsers$Parser;
	areturn
  Labels:

public static final scala.util.parsing.combinator.Parsers$Parser not(scala.Function0);
  Signature: (Lscala/Function0;)Lscala/util/parsing/combinator/Parsers$Parser;
  Code:
   Stack=2, Locals=1, Args_size=1
	getstatic	Field scala/util/parsing/combinator/testing/RegexTest$.MODULE$:Lscala/util/parsing/combinator/testing/RegexTest$;
	aload_0
	invokevirtual	Method scala/util/parsing/combinator/testing/RegexTest$.not:(Lscala/Function0;)Lscala/util/parsing/combinator/Parsers$Parser;
	areturn
  Labels:

public static final scala.util.parsing.combinator.Parsers$Parser opt(scala.Function0);
  Signature: (Lscala/Function0;)Lscala/util/parsing/combinator/Parsers$Parser;
  Code:
   Stack=2, Locals=1, Args_size=1
	getstatic	Field scala/util/parsing/combinator/testing/RegexTest$.MODULE$:Lscala/util/parsing/combinator/testing/RegexTest$;
	aload_0
	invokevirtual	Method scala/util/parsing/combinator/testing/RegexTest$.opt:(Lscala/Function0;)Lscala/util/parsing/combinator/Parsers$Parser;
	areturn
  Labels:

public static final scala.util.parsing.combinator.Parsers$Parser chainr1(scala.Function0, scala.Function0, scala.Function2, java.lang.Object);
  Signature: (Lscala/Function0;Lscala/Function0;Lscala/Function2;Ljava/lang/Object;)Lscala/util/parsing/combinator/Parsers$Parser;
  Code:
   Stack=5, Locals=4, Args_size=4
	getstatic	Field scala/util/parsing/combinator/testing/RegexTest$.MODULE$:Lscala/util/parsing/combinator/testing/RegexTest$;
	aload_0
	aload_1
	aload_2
	aload_3
	invokevirtual	Method scala/util/parsing/combinator/testing/RegexTest$.chainr1:(Lscala/Function0;Lscala/Function0;Lscala/Function2;Ljava/lang/Object;)Lscala/util/parsing/combinator/Parsers$Parser;
	areturn
  Labels:

public static final scala.util.parsing.combinator.Parsers$Parser chainl1(scala.Function0, scala.Function0, scala.Function0);
  Signature: (Lscala/Function0;Lscala/Function0;Lscala/Function0;)Lscala/util/parsing/combinator/Parsers$Parser;
  Code:
   Stack=4, Locals=3, Args_size=3
	getstatic	Field scala/util/parsing/combinator/testing/RegexTest$.MODULE$:Lscala/util/parsing/combinator/testing/RegexTest$;
	aload_0
	aload_1
	aload_2
	invokevirtual	Method scala/util/parsing/combinator/testing/RegexTest$.chainl1:(Lscala/Function0;Lscala/Function0;Lscala/Function0;)Lscala/util/parsing/combinator/Parsers$Parser;
	areturn
  Labels:

public static final scala.util.parsing.combinator.Parsers$Parser chainl1(scala.Function0, scala.Function0);
  Signature: (Lscala/Function0;Lscala/Function0;)Lscala/util/parsing/combinator/Parsers$Parser;
  Code:
   Stack=3, Locals=2, Args_size=2
	getstatic	Field scala/util/parsing/combinator/testing/RegexTest$.MODULE$:Lscala/util/parsing/combinator/testing/RegexTest$;
	aload_0
	aload_1
	invokevirtual	Method scala/util/parsing/combinator/testing/RegexTest$.chainl1:(Lscala/Function0;Lscala/Function0;)Lscala/util/parsing/combinator/Parsers$Parser;
	areturn
  Labels:

public static final scala.util.parsing.combinator.Parsers$Parser rep1sep(scala.Function0, scala.Function0);
  Signature: (Lscala/Function0;Lscala/Function0;)Lscala/util/parsing/combinator/Parsers$Parser;
  Code:
   Stack=3, Locals=2, Args_size=2
	getstatic	Field scala/util/parsing/combinator/testing/RegexTest$.MODULE$:Lscala/util/parsing/combinator/testing/RegexTest$;
	aload_0
	aload_1
	invokevirtual	Method scala/util/parsing/combinator/testing/RegexTest$.rep1sep:(Lscala/Function0;Lscala/Function0;)Lscala/util/parsing/combinator/Parsers$Parser;
	areturn
  Labels:

public static final scala.util.parsing.combinator.Parsers$Parser repN(int, scala.Function0);
  Signature: (ILscala/Function0;)Lscala/util/parsing/combinator/Parsers$Parser;
  Code:
   Stack=3, Locals=2, Args_size=2
	getstatic	Field scala/util/parsing/combinator/testing/RegexTest$.MODULE$:Lscala/util/parsing/combinator/testing/RegexTest$;
	iload_0
	aload_1
	invokevirtual	Method scala/util/parsing/combinator/testing/RegexTest$.repN:(ILscala/Function0;)Lscala/util/parsing/combinator/Parsers$Parser;
	areturn
  Labels:

public static final scala.util.parsing.combinator.Parsers$Parser rep1(scala.Function0, scala.Function0);
  Signature: (Lscala/Function0;Lscala/Function0;)Lscala/util/parsing/combinator/Parsers$Parser;
  Code:
   Stack=3, Locals=2, Args_size=2
	getstatic	Field scala/util/parsing/combinator/testing/RegexTest$.MODULE$:Lscala/util/parsing/combinator/testing/RegexTest$;
	aload_0
	aload_1
	invokevirtual	Method scala/util/parsing/combinator/testing/RegexTest$.rep1:(Lscala/Function0;Lscala/Function0;)Lscala/util/parsing/combinator/Parsers$Parser;
	areturn
  Labels:

public static final scala.util.parsing.combinator.Parsers$Parser rep1(scala.Function0);
  Signature: (Lscala/Function0;)Lscala/util/parsing/combinator/Parsers$Parser;
  Code:
   Stack=2, Locals=1, Args_size=1
	getstatic	Field scala/util/parsing/combinator/testing/RegexTest$.MODULE$:Lscala/util/parsing/combinator/testing/RegexTest$;
	aload_0
	invokevirtual	Method scala/util/parsing/combinator/testing/RegexTest$.rep1:(Lscala/Function0;)Lscala/util/parsing/combinator/Parsers$Parser;
	areturn
  Labels:

public static final scala.util.parsing.combinator.Parsers$Parser repsep(scala.Function0, scala.Function0);
  Signature: (Lscala/Function0;Lscala/Function0;)Lscala/util/parsing/combinator/Parsers$Parser;
  Code:
   Stack=3, Locals=2, Args_size=2
	getstatic	Field scala/util/parsing/combinator/testing/RegexTest$.MODULE$:Lscala/util/parsing/combinator/testing/RegexTest$;
	aload_0
	aload_1
	invokevirtual	Method scala/util/parsing/combinator/testing/RegexTest$.repsep:(Lscala/Function0;Lscala/Function0;)Lscala/util/parsing/combinator/Parsers$Parser;
	areturn
  Labels:

public static final scala.util.parsing.combinator.Parsers$Parser rep(scala.Function0);
  Signature: (Lscala/Function0;)Lscala/util/parsing/combinator/Parsers$Parser;
  Code:
   Stack=2, Locals=1, Args_size=1
	getstatic	Field scala/util/parsing/combinator/testing/RegexTest$.MODULE$:Lscala/util/parsing/combinator/testing/RegexTest$;
	aload_0
	invokevirtual	Method scala/util/parsing/combinator/testing/RegexTest$.rep:(Lscala/Function0;)Lscala/util/parsing/combinator/Parsers$Parser;
	areturn
  Labels:

public static final scala.util.parsing.combinator.Parsers$Parser log(scala.Function0, java.lang.String);
  Signature: (Lscala/Function0;Ljava/lang/String;)Lscala/util/parsing/combinator/Parsers$Parser;
  Code:
   Stack=3, Locals=2, Args_size=2
	getstatic	Field scala/util/parsing/combinator/testing/RegexTest$.MODULE$:Lscala/util/parsing/combinator/testing/RegexTest$;
	aload_0
	aload_1
	invokevirtual	Method scala/util/parsing/combinator/testing/RegexTest$.log:(Lscala/Function0;Ljava/lang/String;)Lscala/util/parsing/combinator/Parsers$Parser;
	areturn
  Labels:

public static final scala.util.parsing.combinator.Parsers$Parser success(java.lang.Object);
  Signature: (Ljava/lang/Object;)Lscala/util/parsing/combinator/Parsers$Parser;
  Code:
   Stack=2, Locals=1, Args_size=1
	getstatic	Field scala/util/parsing/combinator/testing/RegexTest$.MODULE$:Lscala/util/parsing/combinator/testing/RegexTest$;
	aload_0
	invokevirtual	Method scala/util/parsing/combinator/testing/RegexTest$.success:(Ljava/lang/Object;)Lscala/util/parsing/combinator/Parsers$Parser;
	areturn
  Labels:

public static final scala.util.parsing.combinator.Parsers$Parser err(java.lang.String);
  Signature: (Ljava/lang/String;)Lscala/util/parsing/combinator/Parsers$Parser;
  Code:
   Stack=2, Locals=1, Args_size=1
	getstatic	Field scala/util/parsing/combinator/testing/RegexTest$.MODULE$:Lscala/util/parsing/combinator/testing/RegexTest$;
	aload_0
	invokevirtual	Method scala/util/parsing/combinator/testing/RegexTest$.err:(Ljava/lang/String;)Lscala/util/parsing/combinator/Parsers$Parser;
	areturn
  Labels:

public static final scala.util.parsing.combinator.Parsers$Parser failure(java.lang.String);
  Signature: (Ljava/lang/String;)Lscala/util/parsing/combinator/Parsers$Parser;
  Code:
   Stack=2, Locals=1, Args_size=1
	getstatic	Field scala/util/parsing/combinator/testing/RegexTest$.MODULE$:Lscala/util/parsing/combinator/testing/RegexTest$;
	aload_0
	invokevirtual	Method scala/util/parsing/combinator/testing/RegexTest$.failure:(Ljava/lang/String;)Lscala/util/parsing/combinator/Parsers$Parser;
	areturn
  Labels:

public static final scala.util.parsing.combinator.Parsers$Parser acceptSeq(java.lang.Object, scala.Function1);
  Signature: (Ljava/lang/Object;Lscala/Function1;)Lscala/util/parsing/combinator/Parsers$Parser;
  Code:
   Stack=3, Locals=2, Args_size=2
	getstatic	Field scala/util/parsing/combinator/testing/RegexTest$.MODULE$:Lscala/util/parsing/combinator/testing/RegexTest$;
	aload_0
	aload_1
	invokevirtual	Method scala/util/parsing/combinator/testing/RegexTest$.acceptSeq:(Ljava/lang/Object;Lscala/Function1;)Lscala/util/parsing/combinator/Parsers$Parser;
	areturn
  Labels:

public static final scala.util.parsing.combinator.Parsers$Parser acceptMatch(java.lang.String, scala.PartialFunction);
  Signature: (Ljava/lang/String;Lscala/PartialFunction;)Lscala/util/parsing/combinator/Parsers$Parser;
  Code:
   Stack=3, Locals=2, Args_size=2
	getstatic	Field scala/util/parsing/combinator/testing/RegexTest$.MODULE$:Lscala/util/parsing/combinator/testing/RegexTest$;
	aload_0
	aload_1
	invokevirtual	Method scala/util/parsing/combinator/testing/RegexTest$.acceptMatch:(Ljava/lang/String;Lscala/PartialFunction;)Lscala/util/parsing/combinator/Parsers$Parser;
	areturn
  Labels:

public static final scala.util.parsing.combinator.Parsers$Parser acceptIf(scala.Function1, scala.Function1);
  Signature: (Lscala/Function1;Lscala/Function1;)Lscala/util/parsing/combinator/Parsers$Parser;
  Code:
   Stack=3, Locals=2, Args_size=2
	getstatic	Field scala/util/parsing/combinator/testing/RegexTest$.MODULE$:Lscala/util/parsing/combinator/testing/RegexTest$;
	aload_0
	aload_1
	invokevirtual	Method scala/util/parsing/combinator/testing/RegexTest$.acceptIf:(Lscala/Function1;Lscala/Function1;)Lscala/util/parsing/combinator/Parsers$Parser;
	areturn
  Labels:

public static final scala.util.parsing.combinator.Parsers$Parser accept(java.lang.String, scala.PartialFunction);
  Signature: (Ljava/lang/String;Lscala/PartialFunction;)Lscala/util/parsing/combinator/Parsers$Parser;
  Code:
   Stack=3, Locals=2, Args_size=2
	getstatic	Field scala/util/parsing/combinator/testing/RegexTest$.MODULE$:Lscala/util/parsing/combinator/testing/RegexTest$;
	aload_0
	aload_1
	invokevirtual	Method scala/util/parsing/combinator/testing/RegexTest$.accept:(Ljava/lang/String;Lscala/PartialFunction;)Lscala/util/parsing/combinator/Parsers$Parser;
	areturn
  Labels:

public static final scala.util.parsing.combinator.Parsers$Parser accept(java.lang.Object, scala.Function1);
  Signature: (Ljava/lang/Object;Lscala/Function1;)Lscala/util/parsing/combinator/Parsers$Parser;
  Code:
   Stack=3, Locals=2, Args_size=2
	getstatic	Field scala/util/parsing/combinator/testing/RegexTest$.MODULE$:Lscala/util/parsing/combinator/testing/RegexTest$;
	aload_0
	aload_1
	invokevirtual	Method scala/util/parsing/combinator/testing/RegexTest$.accept:(Ljava/lang/Object;Lscala/Function1;)Lscala/util/parsing/combinator/Parsers$Parser;
	areturn
  Labels:

public static final scala.util.parsing.combinator.Parsers$Parser accept(java.lang.Object);
  Signature: (Ljava/lang/Object;)Lscala/util/parsing/combinator/Parsers$Parser;
  Code:
   Stack=2, Locals=1, Args_size=1
	getstatic	Field scala/util/parsing/combinator/testing/RegexTest$.MODULE$:Lscala/util/parsing/combinator/testing/RegexTest$;
	aload_0
	invokevirtual	Method scala/util/parsing/combinator/testing/RegexTest$.accept:(Ljava/lang/Object;)Lscala/util/parsing/combinator/Parsers$Parser;
	areturn
  Labels:

public static final scala.util.parsing.combinator.Parsers$Parser elem(java.lang.Object);
  Signature: (Ljava/lang/Object;)Lscala/util/parsing/combinator/Parsers$Parser;
  Code:
   Stack=2, Locals=1, Args_size=1
	getstatic	Field scala/util/parsing/combinator/testing/RegexTest$.MODULE$:Lscala/util/parsing/combinator/testing/RegexTest$;
	aload_0
	invokevirtual	Method scala/util/parsing/combinator/testing/RegexTest$.elem:(Ljava/lang/Object;)Lscala/util/parsing/combinator/Parsers$Parser;
	areturn
  Labels:

public static final scala.util.parsing.combinator.Parsers$Parser elem(java.lang.String, scala.Function1);
  Signature: (Ljava/lang/String;Lscala/Function1;)Lscala/util/parsing/combinator/Parsers$Parser;
  Code:
   Stack=3, Locals=2, Args_size=2
	getstatic	Field scala/util/parsing/combinator/testing/RegexTest$.MODULE$:Lscala/util/parsing/combinator/testing/RegexTest$;
	aload_0
	aload_1
	invokevirtual	Method scala/util/parsing/combinator/testing/RegexTest$.elem:(Ljava/lang/String;Lscala/Function1;)Lscala/util/parsing/combinator/Parsers$Parser;
	areturn
  Labels:

public static final scala.util.parsing.combinator.Parsers$Parser commit(scala.Function0);
  Signature: (Lscala/Function0;)Lscala/util/parsing/combinator/Parsers$Parser;
  Code:
   Stack=2, Locals=1, Args_size=1
	getstatic	Field scala/util/parsing/combinator/testing/RegexTest$.MODULE$:Lscala/util/parsing/combinator/testing/RegexTest$;
	aload_0
	invokevirtual	Method scala/util/parsing/combinator/testing/RegexTest$.commit:(Lscala/Function0;)Lscala/util/parsing/combinator/Parsers$Parser;
	areturn
  Labels:

public static final scala.util.parsing.combinator.Parsers$Parser OnceParser(scala.Function1);
  Signature: (Lscala/Function1;)Lscala/util/parsing/combinator/Parsers$Parser;
  Code:
   Stack=2, Locals=1, Args_size=1
	getstatic	Field scala/util/parsing/combinator/testing/RegexTest$.MODULE$:Lscala/util/parsing/combinator/testing/RegexTest$;
	aload_0
	invokevirtual	Method scala/util/parsing/combinator/testing/RegexTest$.OnceParser:(Lscala/Function1;)Lscala/util/parsing/combinator/Parsers$Parser;
	areturn
  Labels:

public static final scala.util.parsing.combinator.Parsers$Parser Parser(scala.Function1);
  Signature: (Lscala/Function1;)Lscala/util/parsing/combinator/Parsers$Parser;
  Code:
   Stack=2, Locals=1, Args_size=1
	getstatic	Field scala/util/parsing/combinator/testing/RegexTest$.MODULE$:Lscala/util/parsing/combinator/testing/RegexTest$;
	aload_0
	invokevirtual	Method scala/util/parsing/combinator/testing/RegexTest$.Parser:(Lscala/Function1;)Lscala/util/parsing/combinator/Parsers$Parser;
	areturn
  Labels:

public static final void lastNoSuccess_$eq(scala.util.parsing.combinator.Parsers$NoSuccess);
  Signature: (Lscala/util/parsing/combinator/Parsers$NoSuccess;)V
  Code:
   Stack=2, Locals=1, Args_size=1
	getstatic	Field scala/util/parsing/combinator/testing/RegexTest$.MODULE$:Lscala/util/parsing/combinator/testing/RegexTest$;
	aload_0
	invokevirtual	Method scala/util/parsing/combinator/testing/RegexTest$.lastNoSuccess_$eq:(Lscala/util/parsing/combinator/Parsers$NoSuccess;)V
	return
  Labels:

public static final scala.util.parsing.combinator.Parsers$NoSuccess lastNoSuccess();
  Signature: ()Lscala/util/parsing/combinator/Parsers$NoSuccess;
  Code:
   Stack=1, Locals=0, Args_size=0
	getstatic	Field scala/util/parsing/combinator/testing/RegexTest$.MODULE$:Lscala/util/parsing/combinator/testing/RegexTest$;
	invokevirtual	Method scala/util/parsing/combinator/testing/RegexTest$.lastNoSuccess:()Lscala/util/parsing/combinator/Parsers$NoSuccess;
	areturn
  Labels:

public static final scala.util.parsing.combinator.Parsers$ParseResult parseAll(scala.util.parsing.combinator.Parsers$Parser, java.lang.CharSequence);
  Signature: (Lscala/util/parsing/combinator/Parsers$Parser;Ljava/lang/CharSequence;)Lscala/util/parsing/combinator/Parsers$ParseResult;
  Code:
   Stack=3, Locals=2, Args_size=2
	getstatic	Field scala/util/parsing/combinator/testing/RegexTest$.MODULE$:Lscala/util/parsing/combinator/testing/RegexTest$;
	aload_0
	aload_1
	invokevirtual	Method scala/util/parsing/combinator/testing/RegexTest$.parseAll:(Lscala/util/parsing/combinator/Parsers$Parser;Ljava/lang/CharSequence;)Lscala/util/parsing/combinator/Parsers$ParseResult;
	areturn
  Labels:

public static final scala.util.parsing.combinator.Parsers$ParseResult parseAll(scala.util.parsing.combinator.Parsers$Parser, java.io.Reader);
  Signature: (Lscala/util/parsing/combinator/Parsers$Parser;Ljava/io/Reader;)Lscala/util/parsing/combinator/Parsers$ParseResult;
  Code:
   Stack=3, Locals=2, Args_size=2
	getstatic	Field scala/util/parsing/combinator/testing/RegexTest$.MODULE$:Lscala/util/parsing/combinator/testing/RegexTest$;
	aload_0
	aload_1
	invokevirtual	Method scala/util/parsing/combinator/testing/RegexTest$.parseAll:(Lscala/util/parsing/combinator/Parsers$Parser;Ljava/io/Reader;)Lscala/util/parsing/combinator/Parsers$ParseResult;
	areturn
  Labels:

public static final scala.util.parsing.combinator.Parsers$ParseResult parseAll(scala.util.parsing.combinator.Parsers$Parser, scala.util.parsing.input.Reader);
  Signature: (Lscala/util/parsing/combinator/Parsers$Parser;Lscala/util/parsing/input/Reader;)Lscala/util/parsing/combinator/Parsers$ParseResult;
  Code:
   Stack=3, Locals=2, Args_size=2
	getstatic	Field scala/util/parsing/combinator/testing/RegexTest$.MODULE$:Lscala/util/parsing/combinator/testing/RegexTest$;
	aload_0
	aload_1
	invokevirtual	Method scala/util/parsing/combinator/testing/RegexTest$.parseAll:(Lscala/util/parsing/combinator/Parsers$Parser;Lscala/util/parsing/input/Reader;)Lscala/util/parsing/combinator/Parsers$ParseResult;
	areturn
  Labels:

public static final scala.util.parsing.combinator.Parsers$ParseResult parse(scala.util.parsing.combinator.Parsers$Parser, java.io.Reader);
  Signature: (Lscala/util/parsing/combinator/Parsers$Parser;Ljava/io/Reader;)Lscala/util/parsing/combinator/Parsers$ParseResult;
  Code:
   Stack=3, Locals=2, Args_size=2
	getstatic	Field scala/util/parsing/combinator/testing/RegexTest$.MODULE$:Lscala/util/parsing/combinator/testing/RegexTest$;
	aload_0
	aload_1
	invokevirtual	Method scala/util/parsing/combinator/testing/RegexTest$.parse:(Lscala/util/parsing/combinator/Parsers$Parser;Ljava/io/Reader;)Lscala/util/parsing/combinator/Parsers$ParseResult;
	areturn
  Labels:

public static final scala.util.parsing.combinator.Parsers$ParseResult parse(scala.util.parsing.combinator.Parsers$Parser, java.lang.CharSequence);
  Signature: (Lscala/util/parsing/combinator/Parsers$Parser;Ljava/lang/CharSequence;)Lscala/util/parsing/combinator/Parsers$ParseResult;
  Code:
   Stack=3, Locals=2, Args_size=2
	getstatic	Field scala/util/parsing/combinator/testing/RegexTest$.MODULE$:Lscala/util/parsing/combinator/testing/RegexTest$;
	aload_0
	aload_1
	invokevirtual	Method scala/util/parsing/combinator/testing/RegexTest$.parse:(Lscala/util/parsing/combinator/Parsers$Parser;Ljava/lang/CharSequence;)Lscala/util/parsing/combinator/Parsers$ParseResult;
	areturn
  Labels:

public static final scala.util.parsing.combinator.Parsers$ParseResult parse(scala.util.parsing.combinator.Parsers$Parser, scala.util.parsing.input.Reader);
  Signature: (Lscala/util/parsing/combinator/Parsers$Parser;Lscala/util/parsing/input/Reader;)Lscala/util/parsing/combinator/Parsers$ParseResult;
  Code:
   Stack=3, Locals=2, Args_size=2
	getstatic	Field scala/util/parsing/combinator/testing/RegexTest$.MODULE$:Lscala/util/parsing/combinator/testing/RegexTest$;
	aload_0
	aload_1
	invokevirtual	Method scala/util/parsing/combinator/testing/RegexTest$.parse:(Lscala/util/parsing/combinator/Parsers$Parser;Lscala/util/parsing/input/Reader;)Lscala/util/parsing/combinator/Parsers$ParseResult;
	areturn
  Labels:

public static final scala.util.parsing.combinator.Parsers$Parser phrase(scala.util.parsing.combinator.Parsers$Parser);
  Signature: (Lscala/util/parsing/combinator/Parsers$Parser;)Lscala/util/parsing/combinator/Parsers$Parser;
  Code:
   Stack=2, Locals=1, Args_size=1
	getstatic	Field scala/util/parsing/combinator/testing/RegexTest$.MODULE$:Lscala/util/parsing/combinator/testing/RegexTest$;
	aload_0
	invokevirtual	Method scala/util/parsing/combinator/testing/RegexTest$.phrase:(Lscala/util/parsing/combinator/Parsers$Parser;)Lscala/util/parsing/combinator/Parsers$Parser;
	areturn
  Labels:

public static final scala.util.parsing.combinator.Parsers$Parser regex(scala.util.matching.Regex);
  Signature: (Lscala/util/matching/Regex;)Lscala/util/parsing/combinator/Parsers$Parser;
  Code:
   Stack=2, Locals=1, Args_size=1
	getstatic	Field scala/util/parsing/combinator/testing/RegexTest$.MODULE$:Lscala/util/parsing/combinator/testing/RegexTest$;
	aload_0
	invokevirtual	Method scala/util/parsing/combinator/testing/RegexTest$.regex:(Lscala/util/matching/Regex;)Lscala/util/parsing/combinator/Parsers$Parser;
	areturn
  Labels:

public static final scala.util.parsing.combinator.Parsers$Parser literal(java.lang.String);
  Signature: (Ljava/lang/String;)Lscala/util/parsing/combinator/Parsers$Parser;
  Code:
   Stack=2, Locals=1, Args_size=1
	getstatic	Field scala/util/parsing/combinator/testing/RegexTest$.MODULE$:Lscala/util/parsing/combinator/testing/RegexTest$;
	aload_0
	invokevirtual	Method scala/util/parsing/combinator/testing/RegexTest$.literal:(Ljava/lang/String;)Lscala/util/parsing/combinator/Parsers$Parser;
	areturn
  Labels:

public static final boolean skipWhitespace();
  Signature: ()Z
  Code:
   Stack=1, Locals=0, Args_size=0
	getstatic	Field scala/util/parsing/combinator/testing/RegexTest$.MODULE$:Lscala/util/parsing/combinator/testing/RegexTest$;
	invokevirtual	Method scala/util/parsing/combinator/testing/RegexTest$.skipWhitespace:()Z
	ireturn
  Labels:

public static final void scala$util$parsing$combinator$RegexParsers$_setter_$whiteSpace_$eq(scala.util.matching.Regex);
  Signature: (Lscala/util/matching/Regex;)V
  Code:
   Stack=2, Locals=1, Args_size=1
	getstatic	Field scala/util/parsing/combinator/testing/RegexTest$.MODULE$:Lscala/util/parsing/combinator/testing/RegexTest$;
	aload_0
	invokevirtual	Method scala/util/parsing/combinator/testing/RegexTest$.scala$util$parsing$combinator$RegexParsers$_setter_$whiteSpace_$eq:(Lscala/util/matching/Regex;)V
	return
  Labels:

public static final scala.util.parsing.combinator.Parsers$Parser scala$util$parsing$combinator$RegexParsers$$super$phrase(scala.util.parsing.combinator.Parsers$Parser);
  Signature: (Lscala/util/parsing/combinator/Parsers$Parser;)Lscala/util/parsing/combinator/Parsers$Parser;
  Code:
   Stack=2, Locals=1, Args_size=1
	getstatic	Field scala/util/parsing/combinator/testing/RegexTest$.MODULE$:Lscala/util/parsing/combinator/testing/RegexTest$;
	aload_0
	invokevirtual	Method scala/util/parsing/combinator/testing/RegexTest$.scala$util$parsing$combinator$RegexParsers$$super$phrase:(Lscala/util/parsing/combinator/Parsers$Parser;)Lscala/util/parsing/combinator/Parsers$Parser;
	areturn
  Labels:

public static final void main(java.lang.String[]);
  Signature: ([Ljava/lang/String;)V
  Code:
   Stack=2, Locals=1, Args_size=1
	getstatic	Field scala/util/parsing/combinator/testing/RegexTest$.MODULE$:Lscala/util/parsing/combinator/testing/RegexTest$;
	aload_0
	invokevirtual	Method scala/util/parsing/combinator/testing/RegexTest$.main:([Ljava/lang/String;)V
	return
  Labels:

public static final scala.util.parsing.combinator.Parsers$Parser parser();
  Signature: ()Lscala/util/parsing/combinator/Parsers$Parser;
  Code:
   Stack=1, Locals=0, Args_size=0
	getstatic	Field scala/util/parsing/combinator/testing/RegexTest$.MODULE$:Lscala/util/parsing/combinator/testing/RegexTest$;
	invokevirtual	Method scala/util/parsing/combinator/testing/RegexTest$.parser:()Lscala/util/parsing/combinator/Parsers$Parser;
	areturn
  Labels:
  Signature: length = 0x2
   00 FFFFFFA1 

public static final scala.util.parsing.combinator.Parsers$Parser string();
  Signature: ()Lscala/util/parsing/combinator/Parsers$Parser;
  Code:
   Stack=1, Locals=0, Args_size=0
	getstatic	Field scala/util/parsing/combinator/testing/RegexTest$.MODULE$:Lscala/util/parsing/combinator/testing/RegexTest$;
	invokevirtual	Method scala/util/parsing/combinator/testing/RegexTest$.string:()Lscala/util/parsing/combinator/Parsers$Parser;
	areturn
  Labels:
  Signature: length = 0x2
   00 FFFFFFA6 

public static final scala.util.parsing.combinator.Parsers$Parser number();
  Signature: ()Lscala/util/parsing/combinator/Parsers$Parser;
  Code:
   Stack=1, Locals=0, Args_size=0
	getstatic	Field scala/util/parsing/combinator/testing/RegexTest$.MODULE$:Lscala/util/parsing/combinator/testing/RegexTest$;
	invokevirtual	Method scala/util/parsing/combinator/testing/RegexTest$.number:()Lscala/util/parsing/combinator/Parsers$Parser;
	areturn
  Labels:
  Signature: length = 0x2
   00 FFFFFFA6 

public static final scala.util.parsing.combinator.Parsers$Parser ident();
  Signature: ()Lscala/util/parsing/combinator/Parsers$Parser;
  Code:
   Stack=1, Locals=0, Args_size=0
	getstatic	Field scala/util/parsing/combinator/testing/RegexTest$.MODULE$:Lscala/util/parsing/combinator/testing/RegexTest$;
	invokevirtual	Method scala/util/parsing/combinator/testing/RegexTest$.ident:()Lscala/util/parsing/combinator/Parsers$Parser;
	areturn
  Labels:
  Signature: length = 0x2
   00 FFFFFFA6 

}

