Compiled from "RegexTest.scala"
public final class scala.util.parsing.combinator.testing.RegexTest extends java.lang.Object
  SourceFile: "RegexTest.scala"
  ScalaSig: length = 0x239
   05 00 5F 07 05 01 02 FFFFFF88 02 0D 01 09 52 65 67 65
   78 54 65 73 74 0A 02 03 04 01 07 74 65 73 74 69
   6E 67 0A 02 05 06 01 0A 63 6F 6D 62 69 6E 61 74
   6F 72 0A 02 07 08 01 07 70 61 72 73 69 6E 67 0A
   02 09 0A 01 04 75 74 69 6C 0A 01 0B 01 05 73 63
   61 6C 61 03 00 10 02 0E 0F 0D 01 02 06 08 10 02
   FFFFFF84 FFFFFF80 FFFFFF80 FFFFFF88 02 11 02 09 52 65 67 65 78 54 65 73
   74 13 04 0F 12 1A 1E 10 02 13 18 0D 01 14 0A 02
   15 16 01 04 6C 61 6E 67 0A 01 17 01 04 6A 61 76
   61 09 02 19 14 02 06 4F 62 6A 65 63 74 10 02 1B
   1C 0D 01 04 09 02 1D 04 02 0C 52 65 67 65 78 50
   61 72 73 65 72 73 10 02 1F 20 0D 01 0A 09 02 21
   0A 02 0B 53 63 61 6C 61 4F 62 6A 65 63 74 08 05
   23 0F FFFFFF84 00 24 01 06 3C 69 6E 69 74 3E 14 01 0D
   08 07 26 0F FFFFFFC2 FFFFFF80 FFFFFF84 00 27 01 05 69 64 65 6E 74
   15 01 28 10 03 29 2A 2E 0D 01 0F 09 02 2B 2C 02
   06 50 61 72 73 65 72 09 02 2D 04 02 07 50 61 72
   73 65 72 73 10 02 1F 2F 09 02 30 0A 02 03 41 6E
   79 08 06 32 0F FFFFFFA0 FFFFFF80 04 28 01 06 69 64 65 6E 74
   20 08 07 34 0F FFFFFFC2 FFFFFF80 FFFFFF84 00 27 01 06 6E 75 6D 62
   65 72 08 06 36 0F FFFFFFA0 FFFFFF80 04 28 01 07 6E 75 6D 62
   65 72 20 08 07 38 0F FFFFFFC2 FFFFFF80 FFFFFF84 00 27 01 06 73 74
   72 69 6E 67 08 06 3A 0F FFFFFFA0 FFFFFF80 04 28 01 07 73 74
   72 69 6E 67 20 08 07 3C 0F FFFFFFC2 FFFFFF80 FFFFFF84 00 3D 01 06
   70 61 72 73 65 72 15 01 3E 10 03 29 2A 3F 10 03
   40 48 2E 0E 02 41 46 0E 02 42 45 0D 01 43 0A 02
   44 0C 01 06 3C 72 6F 6F 74 3E 09 01 0B 09 02 47
   0A 01 07 70 61 63 6B 61 67 65 09 02 49 4A 02 04
   4C 69 73 74 0A 02 47 0A 08 06 4C 0F FFFFFFA0 FFFFFF80 04 3E
   01 07 70 61 72 73 65 72 20 08 05 4E 0F FFFFFF84 00 4F
   01 04 6D 61 69 6E 14 02 50 53 10 02 1F 51 09 02
   52 0A 02 04 55 6E 69 74 08 05 54 4D FFFFFFC0 00 55 01
   04 61 72 67 73 10 03 1F 56 58 09 02 57 0A 02 05
   41 72 72 61 79 10 02 59 5C 0E 02 1F 5A 09 02 5B
   0A 01 06 50 72 65 64 65 66 09 02 5D 5E 02 06 53
   74 72 69 6E 67 0A 02 5B 0A 
  InnerClass: 
   public abstract #103= #176 of #178; //Parser=class scala/util/parsing/combinator/Parsers$Parser of class scala/util/parsing/combinator/Parsers
   public abstract #181= #180 of #178; //NoSuccess=class scala/util/parsing/combinator/Parsers$NoSuccess of class scala/util/parsing/combinator/Parsers
   public abstract #184= #183 of #178; //ParseResult=class scala/util/parsing/combinator/Parsers$ParseResult of class scala/util/parsing/combinator/Parsers
   public final #189= #186 of #188; //$anonfun$2=class scala/util/parsing/combinator/testing/RegexTest$$anonfun$2 of class scala/util/parsing/combinator/testing/RegexTest
   public final #192= #191 of #188; //$anonfun$4=class scala/util/parsing/combinator/testing/RegexTest$$anonfun$4 of class scala/util/parsing/combinator/testing/RegexTest
   public final #195= #194 of #188; //$anonfun$3=class scala/util/parsing/combinator/testing/RegexTest$$anonfun$3 of class scala/util/parsing/combinator/testing/RegexTest
   public final #198= #197 of #188; //$anonfun$1=class scala/util/parsing/combinator/testing/RegexTest$$anonfun$1 of class scala/util/parsing/combinator/testing/RegexTest
   public final #201= #200 of #188; //$anonfun$5=class scala/util/parsing/combinator/testing/RegexTest$$anonfun$5 of class scala/util/parsing/combinator/testing/RegexTest
  minor version: 0
  major version: 49
  Constant pool:
const #1 = Asciz	SourceFile;
const #2 = Asciz	RegexTest.scala;
const #3 = Asciz	mkList;
const #4 = Asciz	()Lscala/Function1;;
const #5 = Asciz	Code;
const #6 = Asciz	scala/util/parsing/combinator/testing/RegexTest$;
const #7 = class	#6;	//  scala/util/parsing/combinator/testing/RegexTest$
const #8 = Asciz	MODULE$;
const #9 = Asciz	Lscala/util/parsing/combinator/testing/RegexTest$;;
const #10 = NameAndType	#8:#9;//  MODULE$:Lscala/util/parsing/combinator/testing/RegexTest$;
const #11 = Field	#7.#10;	//  scala/util/parsing/combinator/testing/RegexTest$.MODULE$:Lscala/util/parsing/combinator/testing/RegexTest$;
const #12 = NameAndType	#3:#4;//  mkList:()Lscala/Function1;
const #13 = Method	#7.#12;	//  scala/util/parsing/combinator/testing/RegexTest$.mkList:()Lscala/Function1;
const #14 = Asciz	positioned;
const #15 = Asciz	(Lscala/Function0;)Lscala/util/parsing/combinator/Parsers$Parser;;
const #16 = NameAndType	#14:#15;//  positioned:(Lscala/Function0;)Lscala/util/parsing/combinator/Parsers$Parser;
const #17 = Method	#7.#16;	//  scala/util/parsing/combinator/testing/RegexTest$.positioned:(Lscala/Function0;)Lscala/util/parsing/combinator/Parsers$Parser;
const #18 = Asciz	guard;
const #19 = NameAndType	#18:#15;//  guard:(Lscala/Function0;)Lscala/util/parsing/combinator/Parsers$Parser;
const #20 = Method	#7.#19;	//  scala/util/parsing/combinator/testing/RegexTest$.guard:(Lscala/Function0;)Lscala/util/parsing/combinator/Parsers$Parser;
const #21 = Asciz	not;
const #22 = NameAndType	#21:#15;//  not:(Lscala/Function0;)Lscala/util/parsing/combinator/Parsers$Parser;
const #23 = Method	#7.#22;	//  scala/util/parsing/combinator/testing/RegexTest$.not:(Lscala/Function0;)Lscala/util/parsing/combinator/Parsers$Parser;
const #24 = Asciz	opt;
const #25 = NameAndType	#24:#15;//  opt:(Lscala/Function0;)Lscala/util/parsing/combinator/Parsers$Parser;
const #26 = Method	#7.#25;	//  scala/util/parsing/combinator/testing/RegexTest$.opt:(Lscala/Function0;)Lscala/util/parsing/combinator/Parsers$Parser;
const #27 = Asciz	chainr1;
const #28 = Asciz	(Lscala/Function0;Lscala/Function0;Lscala/Function2;Ljava/lang/Object;)Lscala/util/parsing/combinator/Parsers$Parser;;
const #29 = NameAndType	#27:#28;//  chainr1:(Lscala/Function0;Lscala/Function0;Lscala/Function2;Ljava/lang/Object;)Lscala/util/parsing/combinator/Parsers$Parser;
const #30 = Method	#7.#29;	//  scala/util/parsing/combinator/testing/RegexTest$.chainr1:(Lscala/Function0;Lscala/Function0;Lscala/Function2;Ljava/lang/Object;)Lscala/util/parsing/combinator/Parsers$Parser;
const #31 = Asciz	chainl1;
const #32 = Asciz	(Lscala/Function0;Lscala/Function0;Lscala/Function0;)Lscala/util/parsing/combinator/Parsers$Parser;;
const #33 = NameAndType	#31:#32;//  chainl1:(Lscala/Function0;Lscala/Function0;Lscala/Function0;)Lscala/util/parsing/combinator/Parsers$Parser;
const #34 = Method	#7.#33;	//  scala/util/parsing/combinator/testing/RegexTest$.chainl1:(Lscala/Function0;Lscala/Function0;Lscala/Function0;)Lscala/util/parsing/combinator/Parsers$Parser;
const #35 = Asciz	(Lscala/Function0;Lscala/Function0;)Lscala/util/parsing/combinator/Parsers$Parser;;
const #36 = NameAndType	#31:#35;//  chainl1:(Lscala/Function0;Lscala/Function0;)Lscala/util/parsing/combinator/Parsers$Parser;
const #37 = Method	#7.#36;	//  scala/util/parsing/combinator/testing/RegexTest$.chainl1:(Lscala/Function0;Lscala/Function0;)Lscala/util/parsing/combinator/Parsers$Parser;
const #38 = Asciz	rep1sep;
const #39 = NameAndType	#38:#35;//  rep1sep:(Lscala/Function0;Lscala/Function0;)Lscala/util/parsing/combinator/Parsers$Parser;
const #40 = Method	#7.#39;	//  scala/util/parsing/combinator/testing/RegexTest$.rep1sep:(Lscala/Function0;Lscala/Function0;)Lscala/util/parsing/combinator/Parsers$Parser;
const #41 = Asciz	repN;
const #42 = Asciz	(ILscala/Function0;)Lscala/util/parsing/combinator/Parsers$Parser;;
const #43 = NameAndType	#41:#42;//  repN:(ILscala/Function0;)Lscala/util/parsing/combinator/Parsers$Parser;
const #44 = Method	#7.#43;	//  scala/util/parsing/combinator/testing/RegexTest$.repN:(ILscala/Function0;)Lscala/util/parsing/combinator/Parsers$Parser;
const #45 = Asciz	rep1;
const #46 = NameAndType	#45:#35;//  rep1:(Lscala/Function0;Lscala/Function0;)Lscala/util/parsing/combinator/Parsers$Parser;
const #47 = Method	#7.#46;	//  scala/util/parsing/combinator/testing/RegexTest$.rep1:(Lscala/Function0;Lscala/Function0;)Lscala/util/parsing/combinator/Parsers$Parser;
const #48 = NameAndType	#45:#15;//  rep1:(Lscala/Function0;)Lscala/util/parsing/combinator/Parsers$Parser;
const #49 = Method	#7.#48;	//  scala/util/parsing/combinator/testing/RegexTest$.rep1:(Lscala/Function0;)Lscala/util/parsing/combinator/Parsers$Parser;
const #50 = Asciz	repsep;
const #51 = NameAndType	#50:#35;//  repsep:(Lscala/Function0;Lscala/Function0;)Lscala/util/parsing/combinator/Parsers$Parser;
const #52 = Method	#7.#51;	//  scala/util/parsing/combinator/testing/RegexTest$.repsep:(Lscala/Function0;Lscala/Function0;)Lscala/util/parsing/combinator/Parsers$Parser;
const #53 = Asciz	rep;
const #54 = NameAndType	#53:#15;//  rep:(Lscala/Function0;)Lscala/util/parsing/combinator/Parsers$Parser;
const #55 = Method	#7.#54;	//  scala/util/parsing/combinator/testing/RegexTest$.rep:(Lscala/Function0;)Lscala/util/parsing/combinator/Parsers$Parser;
const #56 = Asciz	log;
const #57 = Asciz	(Lscala/Function0;Ljava/lang/String;)Lscala/util/parsing/combinator/Parsers$Parser;;
const #58 = NameAndType	#56:#57;//  log:(Lscala/Function0;Ljava/lang/String;)Lscala/util/parsing/combinator/Parsers$Parser;
const #59 = Method	#7.#58;	//  scala/util/parsing/combinator/testing/RegexTest$.log:(Lscala/Function0;Ljava/lang/String;)Lscala/util/parsing/combinator/Parsers$Parser;
const #60 = Asciz	success;
const #61 = Asciz	(Ljava/lang/Object;)Lscala/util/parsing/combinator/Parsers$Parser;;
const #62 = NameAndType	#60:#61;//  success:(Ljava/lang/Object;)Lscala/util/parsing/combinator/Parsers$Parser;
const #63 = Method	#7.#62;	//  scala/util/parsing/combinator/testing/RegexTest$.success:(Ljava/lang/Object;)Lscala/util/parsing/combinator/Parsers$Parser;
const #64 = Asciz	err;
const #65 = Asciz	(Ljava/lang/String;)Lscala/util/parsing/combinator/Parsers$Parser;;
const #66 = NameAndType	#64:#65;//  err:(Ljava/lang/String;)Lscala/util/parsing/combinator/Parsers$Parser;
const #67 = Method	#7.#66;	//  scala/util/parsing/combinator/testing/RegexTest$.err:(Ljava/lang/String;)Lscala/util/parsing/combinator/Parsers$Parser;
const #68 = Asciz	failure;
const #69 = NameAndType	#68:#65;//  failure:(Ljava/lang/String;)Lscala/util/parsing/combinator/Parsers$Parser;
const #70 = Method	#7.#69;	//  scala/util/parsing/combinator/testing/RegexTest$.failure:(Ljava/lang/String;)Lscala/util/parsing/combinator/Parsers$Parser;
const #71 = Asciz	acceptSeq;
const #72 = Asciz	(Ljava/lang/Object;Lscala/Function1;)Lscala/util/parsing/combinator/Parsers$Parser;;
const #73 = NameAndType	#71:#72;//  acceptSeq:(Ljava/lang/Object;Lscala/Function1;)Lscala/util/parsing/combinator/Parsers$Parser;
const #74 = Method	#7.#73;	//  scala/util/parsing/combinator/testing/RegexTest$.acceptSeq:(Ljava/lang/Object;Lscala/Function1;)Lscala/util/parsing/combinator/Parsers$Parser;
const #75 = Asciz	acceptMatch;
const #76 = Asciz	(Ljava/lang/String;Lscala/PartialFunction;)Lscala/util/parsing/combinator/Parsers$Parser;;
const #77 = NameAndType	#75:#76;//  acceptMatch:(Ljava/lang/String;Lscala/PartialFunction;)Lscala/util/parsing/combinator/Parsers$Parser;
const #78 = Method	#7.#77;	//  scala/util/parsing/combinator/testing/RegexTest$.acceptMatch:(Ljava/lang/String;Lscala/PartialFunction;)Lscala/util/parsing/combinator/Parsers$Parser;
const #79 = Asciz	acceptIf;
const #80 = Asciz	(Lscala/Function1;Lscala/Function1;)Lscala/util/parsing/combinator/Parsers$Parser;;
const #81 = NameAndType	#79:#80;//  acceptIf:(Lscala/Function1;Lscala/Function1;)Lscala/util/parsing/combinator/Parsers$Parser;
const #82 = Method	#7.#81;	//  scala/util/parsing/combinator/testing/RegexTest$.acceptIf:(Lscala/Function1;Lscala/Function1;)Lscala/util/parsing/combinator/Parsers$Parser;
const #83 = Asciz	accept;
const #84 = NameAndType	#83:#76;//  accept:(Ljava/lang/String;Lscala/PartialFunction;)Lscala/util/parsing/combinator/Parsers$Parser;
const #85 = Method	#7.#84;	//  scala/util/parsing/combinator/testing/RegexTest$.accept:(Ljava/lang/String;Lscala/PartialFunction;)Lscala/util/parsing/combinator/Parsers$Parser;
const #86 = NameAndType	#83:#72;//  accept:(Ljava/lang/Object;Lscala/Function1;)Lscala/util/parsing/combinator/Parsers$Parser;
const #87 = Method	#7.#86;	//  scala/util/parsing/combinator/testing/RegexTest$.accept:(Ljava/lang/Object;Lscala/Function1;)Lscala/util/parsing/combinator/Parsers$Parser;
const #88 = NameAndType	#83:#61;//  accept:(Ljava/lang/Object;)Lscala/util/parsing/combinator/Parsers$Parser;
const #89 = Method	#7.#88;	//  scala/util/parsing/combinator/testing/RegexTest$.accept:(Ljava/lang/Object;)Lscala/util/parsing/combinator/Parsers$Parser;
const #90 = Asciz	elem;
const #91 = NameAndType	#90:#61;//  elem:(Ljava/lang/Object;)Lscala/util/parsing/combinator/Parsers$Parser;
const #92 = Method	#7.#91;	//  scala/util/parsing/combinator/testing/RegexTest$.elem:(Ljava/lang/Object;)Lscala/util/parsing/combinator/Parsers$Parser;
const #93 = Asciz	(Ljava/lang/String;Lscala/Function1;)Lscala/util/parsing/combinator/Parsers$Parser;;
const #94 = NameAndType	#90:#93;//  elem:(Ljava/lang/String;Lscala/Function1;)Lscala/util/parsing/combinator/Parsers$Parser;
const #95 = Method	#7.#94;	//  scala/util/parsing/combinator/testing/RegexTest$.elem:(Ljava/lang/String;Lscala/Function1;)Lscala/util/parsing/combinator/Parsers$Parser;
const #96 = Asciz	commit;
const #97 = NameAndType	#96:#15;//  commit:(Lscala/Function0;)Lscala/util/parsing/combinator/Parsers$Parser;
const #98 = Method	#7.#97;	//  scala/util/parsing/combinator/testing/RegexTest$.commit:(Lscala/Function0;)Lscala/util/parsing/combinator/Parsers$Parser;
const #99 = Asciz	OnceParser;
const #100 = Asciz	(Lscala/Function1;)Lscala/util/parsing/combinator/Parsers$Parser;;
const #101 = NameAndType	#99:#100;//  OnceParser:(Lscala/Function1;)Lscala/util/parsing/combinator/Parsers$Parser;
const #102 = Method	#7.#101;	//  scala/util/parsing/combinator/testing/RegexTest$.OnceParser:(Lscala/Function1;)Lscala/util/parsing/combinator/Parsers$Parser;
const #103 = Asciz	Parser;
const #104 = NameAndType	#103:#100;//  Parser:(Lscala/Function1;)Lscala/util/parsing/combinator/Parsers$Parser;
const #105 = Method	#7.#104;	//  scala/util/parsing/combinator/testing/RegexTest$.Parser:(Lscala/Function1;)Lscala/util/parsing/combinator/Parsers$Parser;
const #106 = Asciz	lastNoSuccess_$eq;
const #107 = Asciz	(Lscala/util/parsing/combinator/Parsers$NoSuccess;)V;
const #108 = NameAndType	#106:#107;//  lastNoSuccess_$eq:(Lscala/util/parsing/combinator/Parsers$NoSuccess;)V
const #109 = Method	#7.#108;	//  scala/util/parsing/combinator/testing/RegexTest$.lastNoSuccess_$eq:(Lscala/util/parsing/combinator/Parsers$NoSuccess;)V
const #110 = Asciz	lastNoSuccess;
const #111 = Asciz	()Lscala/util/parsing/combinator/Parsers$NoSuccess;;
const #112 = NameAndType	#110:#111;//  lastNoSuccess:()Lscala/util/parsing/combinator/Parsers$NoSuccess;
const #113 = Method	#7.#112;	//  scala/util/parsing/combinator/testing/RegexTest$.lastNoSuccess:()Lscala/util/parsing/combinator/Parsers$NoSuccess;
const #114 = Asciz	parseAll;
const #115 = Asciz	(Lscala/util/parsing/combinator/Parsers$Parser;Ljava/lang/CharSequence;)Lscala/util/parsing/combinator/Parsers$ParseResult;;
const #116 = NameAndType	#114:#115;//  parseAll:(Lscala/util/parsing/combinator/Parsers$Parser;Ljava/lang/CharSequence;)Lscala/util/parsing/combinator/Parsers$ParseResult;
const #117 = Method	#7.#116;	//  scala/util/parsing/combinator/testing/RegexTest$.parseAll:(Lscala/util/parsing/combinator/Parsers$Parser;Ljava/lang/CharSequence;)Lscala/util/parsing/combinator/Parsers$ParseResult;
const #118 = Asciz	(Lscala/util/parsing/combinator/Parsers$Parser;Ljava/io/Reader;)Lscala/util/parsing/combinator/Parsers$ParseResult;;
const #119 = NameAndType	#114:#118;//  parseAll:(Lscala/util/parsing/combinator/Parsers$Parser;Ljava/io/Reader;)Lscala/util/parsing/combinator/Parsers$ParseResult;
const #120 = Method	#7.#119;	//  scala/util/parsing/combinator/testing/RegexTest$.parseAll:(Lscala/util/parsing/combinator/Parsers$Parser;Ljava/io/Reader;)Lscala/util/parsing/combinator/Parsers$ParseResult;
const #121 = Asciz	(Lscala/util/parsing/combinator/Parsers$Parser;Lscala/util/parsing/input/Reader;)Lscala/util/parsing/combinator/Parsers$ParseResult;;
const #122 = NameAndType	#114:#121;//  parseAll:(Lscala/util/parsing/combinator/Parsers$Parser;Lscala/util/parsing/input/Reader;)Lscala/util/parsing/combinator/Parsers$ParseResult;
const #123 = Method	#7.#122;	//  scala/util/parsing/combinator/testing/RegexTest$.parseAll:(Lscala/util/parsing/combinator/Parsers$Parser;Lscala/util/parsing/input/Reader;)Lscala/util/parsing/combinator/Parsers$ParseResult;
const #124 = Asciz	parse;
const #125 = NameAndType	#124:#118;//  parse:(Lscala/util/parsing/combinator/Parsers$Parser;Ljava/io/Reader;)Lscala/util/parsing/combinator/Parsers$ParseResult;
const #126 = Method	#7.#125;	//  scala/util/parsing/combinator/testing/RegexTest$.parse:(Lscala/util/parsing/combinator/Parsers$Parser;Ljava/io/Reader;)Lscala/util/parsing/combinator/Parsers$ParseResult;
const #127 = NameAndType	#124:#115;//  parse:(Lscala/util/parsing/combinator/Parsers$Parser;Ljava/lang/CharSequence;)Lscala/util/parsing/combinator/Parsers$ParseResult;
const #128 = Method	#7.#127;	//  scala/util/parsing/combinator/testing/RegexTest$.parse:(Lscala/util/parsing/combinator/Parsers$Parser;Ljava/lang/CharSequence;)Lscala/util/parsing/combinator/Parsers$ParseResult;
const #129 = NameAndType	#124:#121;//  parse:(Lscala/util/parsing/combinator/Parsers$Parser;Lscala/util/parsing/input/Reader;)Lscala/util/parsing/combinator/Parsers$ParseResult;
const #130 = Method	#7.#129;	//  scala/util/parsing/combinator/testing/RegexTest$.parse:(Lscala/util/parsing/combinator/Parsers$Parser;Lscala/util/parsing/input/Reader;)Lscala/util/parsing/combinator/Parsers$ParseResult;
const #131 = Asciz	phrase;
const #132 = Asciz	(Lscala/util/parsing/combinator/Parsers$Parser;)Lscala/util/parsing/combinator/Parsers$Parser;;
const #133 = NameAndType	#131:#132;//  phrase:(Lscala/util/parsing/combinator/Parsers$Parser;)Lscala/util/parsing/combinator/Parsers$Parser;
const #134 = Method	#7.#133;	//  scala/util/parsing/combinator/testing/RegexTest$.phrase:(Lscala/util/parsing/combinator/Parsers$Parser;)Lscala/util/parsing/combinator/Parsers$Parser;
const #135 = Asciz	regex;
const #136 = Asciz	(Lscala/util/matching/Regex;)Lscala/util/parsing/combinator/Parsers$Parser;;
const #137 = NameAndType	#135:#136;//  regex:(Lscala/util/matching/Regex;)Lscala/util/parsing/combinator/Parsers$Parser;
const #138 = Method	#7.#137;	//  scala/util/parsing/combinator/testing/RegexTest$.regex:(Lscala/util/matching/Regex;)Lscala/util/parsing/combinator/Parsers$Parser;
const #139 = Asciz	literal;
const #140 = NameAndType	#139:#65;//  literal:(Ljava/lang/String;)Lscala/util/parsing/combinator/Parsers$Parser;
const #141 = Method	#7.#140;	//  scala/util/parsing/combinator/testing/RegexTest$.literal:(Ljava/lang/String;)Lscala/util/parsing/combinator/Parsers$Parser;
const #142 = Asciz	skipWhitespace;
const #143 = Asciz	()Z;
const #144 = NameAndType	#142:#143;//  skipWhitespace:()Z
const #145 = Method	#7.#144;	//  scala/util/parsing/combinator/testing/RegexTest$.skipWhitespace:()Z
const #146 = Asciz	scala$util$parsing$combinator$RegexParsers$_setter_$whiteSpace_$eq;
const #147 = Asciz	(Lscala/util/matching/Regex;)V;
const #148 = NameAndType	#146:#147;//  scala$util$parsing$combinator$RegexParsers$_setter_$whiteSpace_$eq:(Lscala/util/matching/Regex;)V
const #149 = Method	#7.#148;	//  scala/util/parsing/combinator/testing/RegexTest$.scala$util$parsing$combinator$RegexParsers$_setter_$whiteSpace_$eq:(Lscala/util/matching/Regex;)V
const #150 = Asciz	scala$util$parsing$combinator$RegexParsers$$super$phrase;
const #151 = NameAndType	#150:#132;//  scala$util$parsing$combinator$RegexParsers$$super$phrase:(Lscala/util/parsing/combinator/Parsers$Parser;)Lscala/util/parsing/combinator/Parsers$Parser;
const #152 = Method	#7.#151;	//  scala/util/parsing/combinator/testing/RegexTest$.scala$util$parsing$combinator$RegexParsers$$super$phrase:(Lscala/util/parsing/combinator/Parsers$Parser;)Lscala/util/parsing/combinator/Parsers$Parser;
const #153 = Asciz	main;
const #154 = Asciz	([Ljava/lang/String;)V;
const #155 = NameAndType	#153:#154;//  main:([Ljava/lang/String;)V
const #156 = Method	#7.#155;	//  scala/util/parsing/combinator/testing/RegexTest$.main:([Ljava/lang/String;)V
const #157 = Asciz	parser;
const #158 = Asciz	()Lscala/util/parsing/combinator/Parsers$Parser;;
const #159 = NameAndType	#157:#158;//  parser:()Lscala/util/parsing/combinator/Parsers$Parser;
const #160 = Method	#7.#159;	//  scala/util/parsing/combinator/testing/RegexTest$.parser:()Lscala/util/parsing/combinator/Parsers$Parser;
const #161 = Asciz	()Lscala/util/parsing/combinator/Parsers$Parser<Lscala/collection/immutable/List<Ljava/lang/Object;>;>;;
const #162 = Asciz	Signature;
const #163 = Asciz	string;
const #164 = NameAndType	#163:#158;//  string:()Lscala/util/parsing/combinator/Parsers$Parser;
const #165 = Method	#7.#164;	//  scala/util/parsing/combinator/testing/RegexTest$.string:()Lscala/util/parsing/combinator/Parsers$Parser;
const #166 = Asciz	()Lscala/util/parsing/combinator/Parsers$Parser<Ljava/lang/Object;>;;
const #167 = Asciz	number;
const #168 = NameAndType	#167:#158;//  number:()Lscala/util/parsing/combinator/Parsers$Parser;
const #169 = Method	#7.#168;	//  scala/util/parsing/combinator/testing/RegexTest$.number:()Lscala/util/parsing/combinator/Parsers$Parser;
const #170 = Asciz	ident;
const #171 = NameAndType	#170:#158;//  ident:()Lscala/util/parsing/combinator/Parsers$Parser;
const #172 = Method	#7.#171;	//  scala/util/parsing/combinator/testing/RegexTest$.ident:()Lscala/util/parsing/combinator/Parsers$Parser;
const #173 = Asciz	ScalaSig;
const #174 = Asciz	InnerClasses;
const #175 = Asciz	scala/util/parsing/combinator/Parsers$Parser;
const #176 = class	#175;	//  scala/util/parsing/combinator/Parsers$Parser
const #177 = Asciz	scala/util/parsing/combinator/Parsers;
const #178 = class	#177;	//  scala/util/parsing/combinator/Parsers
const #179 = Asciz	scala/util/parsing/combinator/Parsers$NoSuccess;
const #180 = class	#179;	//  scala/util/parsing/combinator/Parsers$NoSuccess
const #181 = Asciz	NoSuccess;
const #182 = Asciz	scala/util/parsing/combinator/Parsers$ParseResult;
const #183 = class	#182;	//  scala/util/parsing/combinator/Parsers$ParseResult
const #184 = Asciz	ParseResult;
const #185 = Asciz	scala/util/parsing/combinator/testing/RegexTest$$anonfun$2;
const #186 = class	#185;	//  scala/util/parsing/combinator/testing/RegexTest$$anonfun$2
const #187 = Asciz	scala/util/parsing/combinator/testing/RegexTest;
const #188 = class	#187;	//  scala/util/parsing/combinator/testing/RegexTest
const #189 = Asciz	$anonfun$2;
const #190 = Asciz	scala/util/parsing/combinator/testing/RegexTest$$anonfun$4;
const #191 = class	#190;	//  scala/util/parsing/combinator/testing/RegexTest$$anonfun$4
const #192 = Asciz	$anonfun$4;
const #193 = Asciz	scala/util/parsing/combinator/testing/RegexTest$$anonfun$3;
const #194 = class	#193;	//  scala/util/parsing/combinator/testing/RegexTest$$anonfun$3
const #195 = Asciz	$anonfun$3;
const #196 = Asciz	scala/util/parsing/combinator/testing/RegexTest$$anonfun$1;
const #197 = class	#196;	//  scala/util/parsing/combinator/testing/RegexTest$$anonfun$1
const #198 = Asciz	$anonfun$1;
const #199 = Asciz	scala/util/parsing/combinator/testing/RegexTest$$anonfun$5;
const #200 = class	#199;	//  scala/util/parsing/combinator/testing/RegexTest$$anonfun$5
const #201 = Asciz	$anonfun$5;
const #202 = Asciz	java/lang/Object;
const #203 = class	#202;	//  java/lang/Object

{
public static final scala.Function1 mkList();
  Code:
   Stack=1, Locals=0, Args_size=0
   0:	getstatic	#11; //Field scala/util/parsing/combinator/testing/RegexTest$.MODULE$:Lscala/util/parsing/combinator/testing/RegexTest$;
   3:	invokevirtual	#13; //Method scala/util/parsing/combinator/testing/RegexTest$.mkList:()Lscala/Function1;
   6:	areturn

public static final scala.util.parsing.combinator.Parsers$Parser positioned(scala.Function0);
  Code:
   Stack=2, Locals=1, Args_size=1
   0:	getstatic	#11; //Field scala/util/parsing/combinator/testing/RegexTest$.MODULE$:Lscala/util/parsing/combinator/testing/RegexTest$;
   3:	aload_0
   4:	invokevirtual	#17; //Method scala/util/parsing/combinator/testing/RegexTest$.positioned:(Lscala/Function0;)Lscala/util/parsing/combinator/Parsers$Parser;
   7:	areturn

public static final scala.util.parsing.combinator.Parsers$Parser guard(scala.Function0);
  Code:
   Stack=2, Locals=1, Args_size=1
   0:	getstatic	#11; //Field scala/util/parsing/combinator/testing/RegexTest$.MODULE$:Lscala/util/parsing/combinator/testing/RegexTest$;
   3:	aload_0
   4:	invokevirtual	#20; //Method scala/util/parsing/combinator/testing/RegexTest$.guard:(Lscala/Function0;)Lscala/util/parsing/combinator/Parsers$Parser;
   7:	areturn

public static final scala.util.parsing.combinator.Parsers$Parser not(scala.Function0);
  Code:
   Stack=2, Locals=1, Args_size=1
   0:	getstatic	#11; //Field scala/util/parsing/combinator/testing/RegexTest$.MODULE$:Lscala/util/parsing/combinator/testing/RegexTest$;
   3:	aload_0
   4:	invokevirtual	#23; //Method scala/util/parsing/combinator/testing/RegexTest$.not:(Lscala/Function0;)Lscala/util/parsing/combinator/Parsers$Parser;
   7:	areturn

public static final scala.util.parsing.combinator.Parsers$Parser opt(scala.Function0);
  Code:
   Stack=2, Locals=1, Args_size=1
   0:	getstatic	#11; //Field scala/util/parsing/combinator/testing/RegexTest$.MODULE$:Lscala/util/parsing/combinator/testing/RegexTest$;
   3:	aload_0
   4:	invokevirtual	#26; //Method scala/util/parsing/combinator/testing/RegexTest$.opt:(Lscala/Function0;)Lscala/util/parsing/combinator/Parsers$Parser;
   7:	areturn

public static final scala.util.parsing.combinator.Parsers$Parser chainr1(scala.Function0, scala.Function0, scala.Function2, java.lang.Object);
  Code:
   Stack=5, Locals=4, Args_size=4
   0:	getstatic	#11; //Field scala/util/parsing/combinator/testing/RegexTest$.MODULE$:Lscala/util/parsing/combinator/testing/RegexTest$;
   3:	aload_0
   4:	aload_1
   5:	aload_2
   6:	aload_3
   7:	invokevirtual	#30; //Method scala/util/parsing/combinator/testing/RegexTest$.chainr1:(Lscala/Function0;Lscala/Function0;Lscala/Function2;Ljava/lang/Object;)Lscala/util/parsing/combinator/Parsers$Parser;
   10:	areturn

public static final scala.util.parsing.combinator.Parsers$Parser chainl1(scala.Function0, scala.Function0, scala.Function0);
  Code:
   Stack=4, Locals=3, Args_size=3
   0:	getstatic	#11; //Field scala/util/parsing/combinator/testing/RegexTest$.MODULE$:Lscala/util/parsing/combinator/testing/RegexTest$;
   3:	aload_0
   4:	aload_1
   5:	aload_2
   6:	invokevirtual	#34; //Method scala/util/parsing/combinator/testing/RegexTest$.chainl1:(Lscala/Function0;Lscala/Function0;Lscala/Function0;)Lscala/util/parsing/combinator/Parsers$Parser;
   9:	areturn

public static final scala.util.parsing.combinator.Parsers$Parser chainl1(scala.Function0, scala.Function0);
  Code:
   Stack=3, Locals=2, Args_size=2
   0:	getstatic	#11; //Field scala/util/parsing/combinator/testing/RegexTest$.MODULE$:Lscala/util/parsing/combinator/testing/RegexTest$;
   3:	aload_0
   4:	aload_1
   5:	invokevirtual	#37; //Method scala/util/parsing/combinator/testing/RegexTest$.chainl1:(Lscala/Function0;Lscala/Function0;)Lscala/util/parsing/combinator/Parsers$Parser;
   8:	areturn

public static final scala.util.parsing.combinator.Parsers$Parser rep1sep(scala.Function0, scala.Function0);
  Code:
   Stack=3, Locals=2, Args_size=2
   0:	getstatic	#11; //Field scala/util/parsing/combinator/testing/RegexTest$.MODULE$:Lscala/util/parsing/combinator/testing/RegexTest$;
   3:	aload_0
   4:	aload_1
   5:	invokevirtual	#40; //Method scala/util/parsing/combinator/testing/RegexTest$.rep1sep:(Lscala/Function0;Lscala/Function0;)Lscala/util/parsing/combinator/Parsers$Parser;
   8:	areturn

public static final scala.util.parsing.combinator.Parsers$Parser repN(int, scala.Function0);
  Code:
   Stack=3, Locals=2, Args_size=2
   0:	getstatic	#11; //Field scala/util/parsing/combinator/testing/RegexTest$.MODULE$:Lscala/util/parsing/combinator/testing/RegexTest$;
   3:	iload_0
   4:	aload_1
   5:	invokevirtual	#44; //Method scala/util/parsing/combinator/testing/RegexTest$.repN:(ILscala/Function0;)Lscala/util/parsing/combinator/Parsers$Parser;
   8:	areturn

public static final scala.util.parsing.combinator.Parsers$Parser rep1(scala.Function0, scala.Function0);
  Code:
   Stack=3, Locals=2, Args_size=2
   0:	getstatic	#11; //Field scala/util/parsing/combinator/testing/RegexTest$.MODULE$:Lscala/util/parsing/combinator/testing/RegexTest$;
   3:	aload_0
   4:	aload_1
   5:	invokevirtual	#47; //Method scala/util/parsing/combinator/testing/RegexTest$.rep1:(Lscala/Function0;Lscala/Function0;)Lscala/util/parsing/combinator/Parsers$Parser;
   8:	areturn

public static final scala.util.parsing.combinator.Parsers$Parser rep1(scala.Function0);
  Code:
   Stack=2, Locals=1, Args_size=1
   0:	getstatic	#11; //Field scala/util/parsing/combinator/testing/RegexTest$.MODULE$:Lscala/util/parsing/combinator/testing/RegexTest$;
   3:	aload_0
   4:	invokevirtual	#49; //Method scala/util/parsing/combinator/testing/RegexTest$.rep1:(Lscala/Function0;)Lscala/util/parsing/combinator/Parsers$Parser;
   7:	areturn

public static final scala.util.parsing.combinator.Parsers$Parser repsep(scala.Function0, scala.Function0);
  Code:
   Stack=3, Locals=2, Args_size=2
   0:	getstatic	#11; //Field scala/util/parsing/combinator/testing/RegexTest$.MODULE$:Lscala/util/parsing/combinator/testing/RegexTest$;
   3:	aload_0
   4:	aload_1
   5:	invokevirtual	#52; //Method scala/util/parsing/combinator/testing/RegexTest$.repsep:(Lscala/Function0;Lscala/Function0;)Lscala/util/parsing/combinator/Parsers$Parser;
   8:	areturn

public static final scala.util.parsing.combinator.Parsers$Parser rep(scala.Function0);
  Code:
   Stack=2, Locals=1, Args_size=1
   0:	getstatic	#11; //Field scala/util/parsing/combinator/testing/RegexTest$.MODULE$:Lscala/util/parsing/combinator/testing/RegexTest$;
   3:	aload_0
   4:	invokevirtual	#55; //Method scala/util/parsing/combinator/testing/RegexTest$.rep:(Lscala/Function0;)Lscala/util/parsing/combinator/Parsers$Parser;
   7:	areturn

public static final scala.util.parsing.combinator.Parsers$Parser log(scala.Function0, java.lang.String);
  Code:
   Stack=3, Locals=2, Args_size=2
   0:	getstatic	#11; //Field scala/util/parsing/combinator/testing/RegexTest$.MODULE$:Lscala/util/parsing/combinator/testing/RegexTest$;
   3:	aload_0
   4:	aload_1
   5:	invokevirtual	#59; //Method scala/util/parsing/combinator/testing/RegexTest$.log:(Lscala/Function0;Ljava/lang/String;)Lscala/util/parsing/combinator/Parsers$Parser;
   8:	areturn

public static final scala.util.parsing.combinator.Parsers$Parser success(java.lang.Object);
  Code:
   Stack=2, Locals=1, Args_size=1
   0:	getstatic	#11; //Field scala/util/parsing/combinator/testing/RegexTest$.MODULE$:Lscala/util/parsing/combinator/testing/RegexTest$;
   3:	aload_0
   4:	invokevirtual	#63; //Method scala/util/parsing/combinator/testing/RegexTest$.success:(Ljava/lang/Object;)Lscala/util/parsing/combinator/Parsers$Parser;
   7:	areturn

public static final scala.util.parsing.combinator.Parsers$Parser err(java.lang.String);
  Code:
   Stack=2, Locals=1, Args_size=1
   0:	getstatic	#11; //Field scala/util/parsing/combinator/testing/RegexTest$.MODULE$:Lscala/util/parsing/combinator/testing/RegexTest$;
   3:	aload_0
   4:	invokevirtual	#67; //Method scala/util/parsing/combinator/testing/RegexTest$.err:(Ljava/lang/String;)Lscala/util/parsing/combinator/Parsers$Parser;
   7:	areturn

public static final scala.util.parsing.combinator.Parsers$Parser failure(java.lang.String);
  Code:
   Stack=2, Locals=1, Args_size=1
   0:	getstatic	#11; //Field scala/util/parsing/combinator/testing/RegexTest$.MODULE$:Lscala/util/parsing/combinator/testing/RegexTest$;
   3:	aload_0
   4:	invokevirtual	#70; //Method scala/util/parsing/combinator/testing/RegexTest$.failure:(Ljava/lang/String;)Lscala/util/parsing/combinator/Parsers$Parser;
   7:	areturn

public static final scala.util.parsing.combinator.Parsers$Parser acceptSeq(java.lang.Object, scala.Function1);
  Code:
   Stack=3, Locals=2, Args_size=2
   0:	getstatic	#11; //Field scala/util/parsing/combinator/testing/RegexTest$.MODULE$:Lscala/util/parsing/combinator/testing/RegexTest$;
   3:	aload_0
   4:	aload_1
   5:	invokevirtual	#74; //Method scala/util/parsing/combinator/testing/RegexTest$.acceptSeq:(Ljava/lang/Object;Lscala/Function1;)Lscala/util/parsing/combinator/Parsers$Parser;
   8:	areturn

public static final scala.util.parsing.combinator.Parsers$Parser acceptMatch(java.lang.String, scala.PartialFunction);
  Code:
   Stack=3, Locals=2, Args_size=2
   0:	getstatic	#11; //Field scala/util/parsing/combinator/testing/RegexTest$.MODULE$:Lscala/util/parsing/combinator/testing/RegexTest$;
   3:	aload_0
   4:	aload_1
   5:	invokevirtual	#78; //Method scala/util/parsing/combinator/testing/RegexTest$.acceptMatch:(Ljava/lang/String;Lscala/PartialFunction;)Lscala/util/parsing/combinator/Parsers$Parser;
   8:	areturn

public static final scala.util.parsing.combinator.Parsers$Parser acceptIf(scala.Function1, scala.Function1);
  Code:
   Stack=3, Locals=2, Args_size=2
   0:	getstatic	#11; //Field scala/util/parsing/combinator/testing/RegexTest$.MODULE$:Lscala/util/parsing/combinator/testing/RegexTest$;
   3:	aload_0
   4:	aload_1
   5:	invokevirtual	#82; //Method scala/util/parsing/combinator/testing/RegexTest$.acceptIf:(Lscala/Function1;Lscala/Function1;)Lscala/util/parsing/combinator/Parsers$Parser;
   8:	areturn

public static final scala.util.parsing.combinator.Parsers$Parser accept(java.lang.String, scala.PartialFunction);
  Code:
   Stack=3, Locals=2, Args_size=2
   0:	getstatic	#11; //Field scala/util/parsing/combinator/testing/RegexTest$.MODULE$:Lscala/util/parsing/combinator/testing/RegexTest$;
   3:	aload_0
   4:	aload_1
   5:	invokevirtual	#85; //Method scala/util/parsing/combinator/testing/RegexTest$.accept:(Ljava/lang/String;Lscala/PartialFunction;)Lscala/util/parsing/combinator/Parsers$Parser;
   8:	areturn

public static final scala.util.parsing.combinator.Parsers$Parser accept(java.lang.Object, scala.Function1);
  Code:
   Stack=3, Locals=2, Args_size=2
   0:	getstatic	#11; //Field scala/util/parsing/combinator/testing/RegexTest$.MODULE$:Lscala/util/parsing/combinator/testing/RegexTest$;
   3:	aload_0
   4:	aload_1
   5:	invokevirtual	#87; //Method scala/util/parsing/combinator/testing/RegexTest$.accept:(Ljava/lang/Object;Lscala/Function1;)Lscala/util/parsing/combinator/Parsers$Parser;
   8:	areturn

public static final scala.util.parsing.combinator.Parsers$Parser accept(java.lang.Object);
  Code:
   Stack=2, Locals=1, Args_size=1
   0:	getstatic	#11; //Field scala/util/parsing/combinator/testing/RegexTest$.MODULE$:Lscala/util/parsing/combinator/testing/RegexTest$;
   3:	aload_0
   4:	invokevirtual	#89; //Method scala/util/parsing/combinator/testing/RegexTest$.accept:(Ljava/lang/Object;)Lscala/util/parsing/combinator/Parsers$Parser;
   7:	areturn

public static final scala.util.parsing.combinator.Parsers$Parser elem(java.lang.Object);
  Code:
   Stack=2, Locals=1, Args_size=1
   0:	getstatic	#11; //Field scala/util/parsing/combinator/testing/RegexTest$.MODULE$:Lscala/util/parsing/combinator/testing/RegexTest$;
   3:	aload_0
   4:	invokevirtual	#92; //Method scala/util/parsing/combinator/testing/RegexTest$.elem:(Ljava/lang/Object;)Lscala/util/parsing/combinator/Parsers$Parser;
   7:	areturn

public static final scala.util.parsing.combinator.Parsers$Parser elem(java.lang.String, scala.Function1);
  Code:
   Stack=3, Locals=2, Args_size=2
   0:	getstatic	#11; //Field scala/util/parsing/combinator/testing/RegexTest$.MODULE$:Lscala/util/parsing/combinator/testing/RegexTest$;
   3:	aload_0
   4:	aload_1
   5:	invokevirtual	#95; //Method scala/util/parsing/combinator/testing/RegexTest$.elem:(Ljava/lang/String;Lscala/Function1;)Lscala/util/parsing/combinator/Parsers$Parser;
   8:	areturn

public static final scala.util.parsing.combinator.Parsers$Parser commit(scala.Function0);
  Code:
   Stack=2, Locals=1, Args_size=1
   0:	getstatic	#11; //Field scala/util/parsing/combinator/testing/RegexTest$.MODULE$:Lscala/util/parsing/combinator/testing/RegexTest$;
   3:	aload_0
   4:	invokevirtual	#98; //Method scala/util/parsing/combinator/testing/RegexTest$.commit:(Lscala/Function0;)Lscala/util/parsing/combinator/Parsers$Parser;
   7:	areturn

public static final scala.util.parsing.combinator.Parsers$Parser OnceParser(scala.Function1);
  Code:
   Stack=2, Locals=1, Args_size=1
   0:	getstatic	#11; //Field scala/util/parsing/combinator/testing/RegexTest$.MODULE$:Lscala/util/parsing/combinator/testing/RegexTest$;
   3:	aload_0
   4:	invokevirtual	#102; //Method scala/util/parsing/combinator/testing/RegexTest$.OnceParser:(Lscala/Function1;)Lscala/util/parsing/combinator/Parsers$Parser;
   7:	areturn

public static final scala.util.parsing.combinator.Parsers$Parser Parser(scala.Function1);
  Code:
   Stack=2, Locals=1, Args_size=1
   0:	getstatic	#11; //Field scala/util/parsing/combinator/testing/RegexTest$.MODULE$:Lscala/util/parsing/combinator/testing/RegexTest$;
   3:	aload_0
   4:	invokevirtual	#105; //Method scala/util/parsing/combinator/testing/RegexTest$.Parser:(Lscala/Function1;)Lscala/util/parsing/combinator/Parsers$Parser;
   7:	areturn

public static final void lastNoSuccess_$eq(scala.util.parsing.combinator.Parsers$NoSuccess);
  Code:
   Stack=2, Locals=1, Args_size=1
   0:	getstatic	#11; //Field scala/util/parsing/combinator/testing/RegexTest$.MODULE$:Lscala/util/parsing/combinator/testing/RegexTest$;
   3:	aload_0
   4:	invokevirtual	#109; //Method scala/util/parsing/combinator/testing/RegexTest$.lastNoSuccess_$eq:(Lscala/util/parsing/combinator/Parsers$NoSuccess;)V
   7:	return

public static final scala.util.parsing.combinator.Parsers$NoSuccess lastNoSuccess();
  Code:
   Stack=1, Locals=0, Args_size=0
   0:	getstatic	#11; //Field scala/util/parsing/combinator/testing/RegexTest$.MODULE$:Lscala/util/parsing/combinator/testing/RegexTest$;
   3:	invokevirtual	#113; //Method scala/util/parsing/combinator/testing/RegexTest$.lastNoSuccess:()Lscala/util/parsing/combinator/Parsers$NoSuccess;
   6:	areturn

public static final scala.util.parsing.combinator.Parsers$ParseResult parseAll(scala.util.parsing.combinator.Parsers$Parser, java.lang.CharSequence);
  Code:
   Stack=3, Locals=2, Args_size=2
   0:	getstatic	#11; //Field scala/util/parsing/combinator/testing/RegexTest$.MODULE$:Lscala/util/parsing/combinator/testing/RegexTest$;
   3:	aload_0
   4:	aload_1
   5:	invokevirtual	#117; //Method scala/util/parsing/combinator/testing/RegexTest$.parseAll:(Lscala/util/parsing/combinator/Parsers$Parser;Ljava/lang/CharSequence;)Lscala/util/parsing/combinator/Parsers$ParseResult;
   8:	areturn

public static final scala.util.parsing.combinator.Parsers$ParseResult parseAll(scala.util.parsing.combinator.Parsers$Parser, java.io.Reader);
  Code:
   Stack=3, Locals=2, Args_size=2
   0:	getstatic	#11; //Field scala/util/parsing/combinator/testing/RegexTest$.MODULE$:Lscala/util/parsing/combinator/testing/RegexTest$;
   3:	aload_0
   4:	aload_1
   5:	invokevirtual	#120; //Method scala/util/parsing/combinator/testing/RegexTest$.parseAll:(Lscala/util/parsing/combinator/Parsers$Parser;Ljava/io/Reader;)Lscala/util/parsing/combinator/Parsers$ParseResult;
   8:	areturn

public static final scala.util.parsing.combinator.Parsers$ParseResult parseAll(scala.util.parsing.combinator.Parsers$Parser, scala.util.parsing.input.Reader);
  Code:
   Stack=3, Locals=2, Args_size=2
   0:	getstatic	#11; //Field scala/util/parsing/combinator/testing/RegexTest$.MODULE$:Lscala/util/parsing/combinator/testing/RegexTest$;
   3:	aload_0
   4:	aload_1
   5:	invokevirtual	#123; //Method scala/util/parsing/combinator/testing/RegexTest$.parseAll:(Lscala/util/parsing/combinator/Parsers$Parser;Lscala/util/parsing/input/Reader;)Lscala/util/parsing/combinator/Parsers$ParseResult;
   8:	areturn

public static final scala.util.parsing.combinator.Parsers$ParseResult parse(scala.util.parsing.combinator.Parsers$Parser, java.io.Reader);
  Code:
   Stack=3, Locals=2, Args_size=2
   0:	getstatic	#11; //Field scala/util/parsing/combinator/testing/RegexTest$.MODULE$:Lscala/util/parsing/combinator/testing/RegexTest$;
   3:	aload_0
   4:	aload_1
   5:	invokevirtual	#126; //Method scala/util/parsing/combinator/testing/RegexTest$.parse:(Lscala/util/parsing/combinator/Parsers$Parser;Ljava/io/Reader;)Lscala/util/parsing/combinator/Parsers$ParseResult;
   8:	areturn

public static final scala.util.parsing.combinator.Parsers$ParseResult parse(scala.util.parsing.combinator.Parsers$Parser, java.lang.CharSequence);
  Code:
   Stack=3, Locals=2, Args_size=2
   0:	getstatic	#11; //Field scala/util/parsing/combinator/testing/RegexTest$.MODULE$:Lscala/util/parsing/combinator/testing/RegexTest$;
   3:	aload_0
   4:	aload_1
   5:	invokevirtual	#128; //Method scala/util/parsing/combinator/testing/RegexTest$.parse:(Lscala/util/parsing/combinator/Parsers$Parser;Ljava/lang/CharSequence;)Lscala/util/parsing/combinator/Parsers$ParseResult;
   8:	areturn

public static final scala.util.parsing.combinator.Parsers$ParseResult parse(scala.util.parsing.combinator.Parsers$Parser, scala.util.parsing.input.Reader);
  Code:
   Stack=3, Locals=2, Args_size=2
   0:	getstatic	#11; //Field scala/util/parsing/combinator/testing/RegexTest$.MODULE$:Lscala/util/parsing/combinator/testing/RegexTest$;
   3:	aload_0
   4:	aload_1
   5:	invokevirtual	#130; //Method scala/util/parsing/combinator/testing/RegexTest$.parse:(Lscala/util/parsing/combinator/Parsers$Parser;Lscala/util/parsing/input/Reader;)Lscala/util/parsing/combinator/Parsers$ParseResult;
   8:	areturn

public static final scala.util.parsing.combinator.Parsers$Parser phrase(scala.util.parsing.combinator.Parsers$Parser);
  Code:
   Stack=2, Locals=1, Args_size=1
   0:	getstatic	#11; //Field scala/util/parsing/combinator/testing/RegexTest$.MODULE$:Lscala/util/parsing/combinator/testing/RegexTest$;
   3:	aload_0
   4:	invokevirtual	#134; //Method scala/util/parsing/combinator/testing/RegexTest$.phrase:(Lscala/util/parsing/combinator/Parsers$Parser;)Lscala/util/parsing/combinator/Parsers$Parser;
   7:	areturn

public static final scala.util.parsing.combinator.Parsers$Parser regex(scala.util.matching.Regex);
  Code:
   Stack=2, Locals=1, Args_size=1
   0:	getstatic	#11; //Field scala/util/parsing/combinator/testing/RegexTest$.MODULE$:Lscala/util/parsing/combinator/testing/RegexTest$;
   3:	aload_0
   4:	invokevirtual	#138; //Method scala/util/parsing/combinator/testing/RegexTest$.regex:(Lscala/util/matching/Regex;)Lscala/util/parsing/combinator/Parsers$Parser;
   7:	areturn

public static final scala.util.parsing.combinator.Parsers$Parser literal(java.lang.String);
  Code:
   Stack=2, Locals=1, Args_size=1
   0:	getstatic	#11; //Field scala/util/parsing/combinator/testing/RegexTest$.MODULE$:Lscala/util/parsing/combinator/testing/RegexTest$;
   3:	aload_0
   4:	invokevirtual	#141; //Method scala/util/parsing/combinator/testing/RegexTest$.literal:(Ljava/lang/String;)Lscala/util/parsing/combinator/Parsers$Parser;
   7:	areturn

public static final boolean skipWhitespace();
  Code:
   Stack=1, Locals=0, Args_size=0
   0:	getstatic	#11; //Field scala/util/parsing/combinator/testing/RegexTest$.MODULE$:Lscala/util/parsing/combinator/testing/RegexTest$;
   3:	invokevirtual	#145; //Method scala/util/parsing/combinator/testing/RegexTest$.skipWhitespace:()Z
   6:	ireturn

public static final void scala$util$parsing$combinator$RegexParsers$_setter_$whiteSpace_$eq(scala.util.matching.Regex);
  Code:
   Stack=2, Locals=1, Args_size=1
   0:	getstatic	#11; //Field scala/util/parsing/combinator/testing/RegexTest$.MODULE$:Lscala/util/parsing/combinator/testing/RegexTest$;
   3:	aload_0
   4:	invokevirtual	#149; //Method scala/util/parsing/combinator/testing/RegexTest$.scala$util$parsing$combinator$RegexParsers$_setter_$whiteSpace_$eq:(Lscala/util/matching/Regex;)V
   7:	return

public static final scala.util.parsing.combinator.Parsers$Parser scala$util$parsing$combinator$RegexParsers$$super$phrase(scala.util.parsing.combinator.Parsers$Parser);
  Code:
   Stack=2, Locals=1, Args_size=1
   0:	getstatic	#11; //Field scala/util/parsing/combinator/testing/RegexTest$.MODULE$:Lscala/util/parsing/combinator/testing/RegexTest$;
   3:	aload_0
   4:	invokevirtual	#152; //Method scala/util/parsing/combinator/testing/RegexTest$.scala$util$parsing$combinator$RegexParsers$$super$phrase:(Lscala/util/parsing/combinator/Parsers$Parser;)Lscala/util/parsing/combinator/Parsers$Parser;
   7:	areturn

public static final void main(java.lang.String[]);
  Code:
   Stack=2, Locals=1, Args_size=1
   0:	getstatic	#11; //Field scala/util/parsing/combinator/testing/RegexTest$.MODULE$:Lscala/util/parsing/combinator/testing/RegexTest$;
   3:	aload_0
   4:	invokevirtual	#156; //Method scala/util/parsing/combinator/testing/RegexTest$.main:([Ljava/lang/String;)V
   7:	return

public static final scala.util.parsing.combinator.Parsers$Parser parser();
  Code:
   Stack=1, Locals=0, Args_size=0
   0:	getstatic	#11; //Field scala/util/parsing/combinator/testing/RegexTest$.MODULE$:Lscala/util/parsing/combinator/testing/RegexTest$;
   3:	invokevirtual	#160; //Method scala/util/parsing/combinator/testing/RegexTest$.parser:()Lscala/util/parsing/combinator/Parsers$Parser;
   6:	areturn
  Signature: length = 0x2
   00 FFFFFFA1 

public static final scala.util.parsing.combinator.Parsers$Parser string();
  Code:
   Stack=1, Locals=0, Args_size=0
   0:	getstatic	#11; //Field scala/util/parsing/combinator/testing/RegexTest$.MODULE$:Lscala/util/parsing/combinator/testing/RegexTest$;
   3:	invokevirtual	#165; //Method scala/util/parsing/combinator/testing/RegexTest$.string:()Lscala/util/parsing/combinator/Parsers$Parser;
   6:	areturn
  Signature: length = 0x2
   00 FFFFFFA6 

public static final scala.util.parsing.combinator.Parsers$Parser number();
  Code:
   Stack=1, Locals=0, Args_size=0
   0:	getstatic	#11; //Field scala/util/parsing/combinator/testing/RegexTest$.MODULE$:Lscala/util/parsing/combinator/testing/RegexTest$;
   3:	invokevirtual	#169; //Method scala/util/parsing/combinator/testing/RegexTest$.number:()Lscala/util/parsing/combinator/Parsers$Parser;
   6:	areturn
  Signature: length = 0x2
   00 FFFFFFA6 

public static final scala.util.parsing.combinator.Parsers$Parser ident();
  Code:
   Stack=1, Locals=0, Args_size=0
   0:	getstatic	#11; //Field scala/util/parsing/combinator/testing/RegexTest$.MODULE$:Lscala/util/parsing/combinator/testing/RegexTest$;
   3:	invokevirtual	#172; //Method scala/util/parsing/combinator/testing/RegexTest$.ident:()Lscala/util/parsing/combinator/Parsers$Parser;
   6:	areturn
  Signature: length = 0x2
   00 FFFFFFA6 

}

