Compiled from "ImplicitConversions.scala"
public interface scala.util.parsing.combinator.ImplicitConversions extends scala.ScalaObject
  SourceFile: "ImplicitConversions.scala"
  ScalaSig: length = 0x461
   05 00 FFFFFF81 28 06 0A 01 02 FFFFFF84 FFFFFF90 FFFFFF80 FFFFFF81 00 0B FFFFFF81 22
   02 13 49 6D 70 6C 69 63 69 74 43 6F 6E 76 65 72
   73 69 6F 6E 73 0A 02 03 04 01 0A 63 6F 6D 62 69
   6E 61 74 6F 72 0A 02 05 06 01 07 70 61 72 73 69
   6E 67 0A 02 07 08 01 04 75 74 69 6C 0A 01 09 01
   05 73 63 61 6C 61 03 00 13 03 00 0C 14 10 02 0D
   12 0D 01 0E 0A 02 0F 10 01 04 6C 61 6E 67 0A 01
   11 01 04 6A 61 76 61 09 02 13 0E 02 06 4F 62 6A
   65 63 74 10 02 15 16 0D 01 08 09 02 17 08 02 0B
   53 63 61 6C 61 4F 62 6A 65 63 74 08 05 19 00 FFFFFF84
   00 1A 01 06 24 69 6E 69 74 24 14 01 1B 10 02 15
   1C 09 02 1D 08 02 04 55 6E 69 74 08 05 1F 00 FFFFFF84
   01 20 01 08 66 6C 61 74 74 65 6E 32 15 04 21 2D
   37 3A 14 02 22 3C 10 04 15 23 25 39 09 02 24 08
   02 09 46 75 6E 63 74 69 6F 6E 31 10 04 26 27 2B
   36 0D 01 00 09 02 28 29 02 06 24 74 69 6C 64 65
   09 02 2A 02 02 07 50 61 72 73 65 72 73 10 02 2C
   2D 0C 00 04 08 2E 1E FFFFFF84 FFFFFF80 FFFFFF80 FFFFFFC2 00 2F 02 01 41
   11 02 30 33 10 02 15 31 09 02 32 08 02 07 4E 6F
   74 68 69 6E 67 10 02 15 34 09 02 35 08 02 03 41
   6E 79 10 02 2C 37 04 08 38 1E FFFFFF84 FFFFFF80 FFFFFF80 FFFFFFC2 00 2F
   02 01 42 10 02 2C 3A 04 08 3B 1E FFFFFF84 FFFFFF80 FFFFFF80 FFFFFFC2 00
   2F 02 01 43 08 05 3D 1E FFFFFFC0 00 3E 01 01 66 10 05
   15 3F 2B 36 39 09 02 40 08 02 09 46 75 6E 63 74
   69 6F 6E 32 08 05 42 00 FFFFFF84 01 43 01 08 66 6C 61
   74 74 65 6E 33 15 05 44 49 4B 4D 4F 14 02 45 51
   10 04 15 23 46 4E 10 04 26 27 47 4C 10 04 26 27
   48 4A 10 02 2C 49 04 08 2E 41 FFFFFF84 FFFFFF80 FFFFFF80 FFFFFFC2 00 2F
   10 02 2C 4B 04 08 38 41 FFFFFF84 FFFFFF80 FFFFFF80 FFFFFFC2 00 2F 10 02
   2C 4D 04 08 3B 41 FFFFFF84 FFFFFF80 FFFFFF80 FFFFFFC2 00 2F 10 02 2C 4F
   04 08 50 41 FFFFFF84 FFFFFF80 FFFFFF80 FFFFFFC2 00 2F 02 01 44 08 05 3D
   41 FFFFFFC0 00 52 10 06 15 53 48 4A 4C 4E 09 02 54 08
   02 09 46 75 6E 63 74 69 6F 6E 33 08 05 56 00 FFFFFF84
   01 57 01 08 66 6C 61 74 74 65 6E 34 15 06 58 5E
   60 62 64 66 14 02 59 68 10 04 15 23 5A 65 10 04
   26 27 5B 63 10 04 26 27 5C 61 10 04 26 27 5D 5F
   10 02 2C 5E 04 08 2E 55 FFFFFF84 FFFFFF80 FFFFFF80 FFFFFFC2 00 2F 10 02
   2C 60 04 08 38 55 FFFFFF84 FFFFFF80 FFFFFF80 FFFFFFC2 00 2F 10 02 2C 62
   04 08 3B 55 FFFFFF84 FFFFFF80 FFFFFF80 FFFFFFC2 00 2F 10 02 2C 64 04 08
   50 55 FFFFFF84 FFFFFF80 FFFFFF80 FFFFFFC2 00 2F 10 02 2C 66 04 08 67 55
   FFFFFF84 FFFFFF80 FFFFFF80 FFFFFFC2 00 2F 02 01 45 08 05 3D 55 FFFFFFC0 00 69
   10 07 15 6A 5D 5F 61 63 65 09 02 6B 08 02 09 46
   75 6E 63 74 69 6F 6E 34 08 05 6D 00 FFFFFF84 01 6E 01
   08 66 6C 61 74 74 65 6E 35 15 08 6F 76 78 7A 7C
   7E FFFFFF81 00 14 03 70 FFFFFF81 02 10 04 15 23 71 7F 10 04
   26 27 72 7D 10 04 26 27 73 7B 10 04 26 27 74 79
   10 04 26 27 75 77 10 02 2C 76 04 08 2E 6C FFFFFF84 FFFFFF80
   FFFFFF80 FFFFFFC2 00 2F 10 02 2C 78 04 08 38 6C FFFFFF84 FFFFFF80 FFFFFF80 FFFFFFC2
   00 2F 10 02 2C 7A 04 08 3B 6C FFFFFF84 FFFFFF80 FFFFFF80 FFFFFFC2 00 2F
   10 02 2C 7C 04 08 50 6C FFFFFF84 FFFFFF80 FFFFFF80 FFFFFFC2 00 2F 10 02
   2C 7E 04 08 67 6C FFFFFF84 FFFFFF80 FFFFFF80 FFFFFFC2 00 2F 10 03 2C FFFFFF81
   00 04 09 FFFFFF81 01 6C FFFFFF84 FFFFFF80 FFFFFF80 FFFFFFC2 00 2F 02 01 46 08
   06 3D 6C FFFFFFC0 00 FFFFFF81 03 10 09 15 FFFFFF81 04 75 77 79 7B
   7D 7F 09 03 FFFFFF81 05 08 02 09 46 75 6E 63 74 69 6F
   6E 35 08 07 FFFFFF81 07 00 FFFFFF84 01 FFFFFF81 08 01 17 68 65 61
   64 4F 70 74 69 6F 6E 54 61 69 6C 54 6F 46 75 6E
   4C 69 73 74 15 06 FFFFFF81 09 FFFFFF81 0D FFFFFF81 1E 14 04 FFFFFF81 0A
   FFFFFF81 20 10 06 15 23 FFFFFF81 0B FFFFFF81 1D 10 06 26 27 FFFFFF81 0C
   FFFFFF81 0E 10 03 2C FFFFFF81 0D 04 09 2E FFFFFF81 06 FFFFFF84 FFFFFF80 FFFFFF80 FFFFFFC2
   00 2F 10 05 15 FFFFFF81 0F FFFFFF81 11 09 03 FFFFFF81 10 08 02 06
   4F 70 74 69 6F 6E 10 06 FFFFFF81 12 FFFFFF81 1A FFFFFF81 0C 0E 04
   FFFFFF81 13 FFFFFF81 18 0E 04 FFFFFF81 14 FFFFFF81 17 0D 02 FFFFFF81 15 0A 03
   FFFFFF81 16 0A 01 06 3C 72 6F 6F 74 3E 09 01 09 09 03
   FFFFFF81 19 08 01 07 70 61 63 6B 61 67 65 09 04 FFFFFF81 1B
   FFFFFF81 1C 02 04 4C 69 73 74 0A 03 FFFFFF81 19 08 10 03 2C
   FFFFFF81 1E 04 0A FFFFFF81 1F FFFFFF81 06 FFFFFF84 FFFFFF80 FFFFFF80 FFFFFFC2 00 2F 02 01
   54 08 07 3D FFFFFF81 06 FFFFFFC0 00 FFFFFF81 21 10 06 15 23 FFFFFF81 11
   FFFFFF81 1D 12 06 FFFFFF81 23 FFFFFF81 25 FFFFFF81 27 06 0A FFFFFF81 24 00 FFFFFF84
   FFFFFF80 FFFFFF80 FFFFFF80 00 FFFFFF81 22 02 0C 3C 72 65 66 69 6E 65 6D
   65 6E 74 3E 10 03 FFFFFF81 26 00 0D 01 02 10 03 FFFFFF81 26
   29 
  InnerClass: 
   public final $anonfun$flatten5$1=class scala/util/parsing/combinator/ImplicitConversions$$anonfun$flatten5$1 of class scala/util/parsing/combinator/ImplicitConversions
   public final $anonfun$flatten4$1=class scala/util/parsing/combinator/ImplicitConversions$$anonfun$flatten4$1 of class scala/util/parsing/combinator/ImplicitConversions
   public final $anonfun$flatten3$1=class scala/util/parsing/combinator/ImplicitConversions$$anonfun$flatten3$1 of class scala/util/parsing/combinator/ImplicitConversions
   public final $anonfun$flatten2$1=class scala/util/parsing/combinator/ImplicitConversions$$anonfun$flatten2$1 of class scala/util/parsing/combinator/ImplicitConversions
   public final $anonfun$headOptionTailToFunList$1=class scala/util/parsing/combinator/ImplicitConversions$$anonfun$headOptionTailToFunList$1 of class scala/util/parsing/combinator/ImplicitConversions
  minor version: 0
  major version: 49
  Constant pool:
Asciz	SourceFile;
Asciz	ImplicitConversions.scala;
Asciz	flatten2;
Asciz	(Lscala/Function2;)Lscala/Function1;;
Asciz	<A:Ljava/lang/Object;B:Ljava/lang/Object;C:Ljava/lang/Object;>(Lscala/Function2<TA;TB;TC;>;)Lscala/Function1<Lscala/util/parsing/combinator/Parsers$$tilde<TA;TB;>;TC;>;;
Asciz	Signature;
Asciz	flatten3;
Asciz	(Lscala/Function3;)Lscala/Function1;;
Asciz	<A:Ljava/lang/Object;B:Ljava/lang/Object;C:Ljava/lang/Object;D:Ljava/lang/Object;>(Lscala/Function3<TA;TB;TC;TD;>;)Lscala/Function1<Lscala/util/parsing/combinator/Parsers$$tilde<Lscala/util/parsing/combinator/Parsers$$tilde<TA;TB;>;TC;>;TD;>;;
Asciz	flatten4;
Asciz	(Lscala/Function4;)Lscala/Function1;;
Asciz	<A:Ljava/lang/Object;B:Ljava/lang/Object;C:Ljava/lang/Object;D:Ljava/lang/Object;E:Ljava/lang/Object;>(Lscala/Function4<TA;TB;TC;TD;TE;>;)Lscala/Function1<Lscala/util/parsing/combinator/Parsers$$tilde<Lscala/util/parsing/combinator/Parsers$$tilde<Lscala/util/parsing/combinator/Parsers$$tilde<TA;TB;>;TC;>;TD;>;TE;>;;
Asciz	flatten5;
Asciz	(Lscala/Function5;)Lscala/Function1;;
Asciz	<A:Ljava/lang/Object;B:Ljava/lang/Object;C:Ljava/lang/Object;D:Ljava/lang/Object;E:Ljava/lang/Object;F:Ljava/lang/Object;>(Lscala/Function5<TA;TB;TC;TD;TE;TF;>;)Lscala/Function1<Lscala/util/parsing/combinator/Parsers$$tilde<Lscala/util/parsing/combinator/Parsers$$tilde<Lscala/util/parsing/combinator/Parsers$$tilde<Lscala/util/parsing/combinator/Parsers$$tilde<TA;TB;>;TC;>;TD;>;TE;>;TF;>;;
Asciz	headOptionTailToFunList;
Asciz	(Lscala/Function1;)Lscala/Function1;;
Asciz	<A:Ljava/lang/Object;T:Ljava/lang/Object;>(Lscala/Function1<Lscala/collection/immutable/List<TA;>;TT;>;)Lscala/Function1<Lscala/util/parsing/combinator/Parsers$$tilde<TA;Lscala/Option<Lscala/collection/immutable/List<TA;>;>;>;TT;>;;
Asciz	ScalaSig;
Asciz	InnerClasses;
Asciz	scala/util/parsing/combinator/ImplicitConversions$$anonfun$flatten5$1;
class	scala/util/parsing/combinator/ImplicitConversions$$anonfun$flatten5$1
Asciz	scala/util/parsing/combinator/ImplicitConversions;
class	scala/util/parsing/combinator/ImplicitConversions
Asciz	$anonfun$flatten5$1;
Asciz	scala/util/parsing/combinator/ImplicitConversions$$anonfun$flatten4$1;
class	scala/util/parsing/combinator/ImplicitConversions$$anonfun$flatten4$1
Asciz	$anonfun$flatten4$1;
Asciz	scala/util/parsing/combinator/ImplicitConversions$$anonfun$flatten3$1;
class	scala/util/parsing/combinator/ImplicitConversions$$anonfun$flatten3$1
Asciz	$anonfun$flatten3$1;
Asciz	scala/util/parsing/combinator/ImplicitConversions$$anonfun$flatten2$1;
class	scala/util/parsing/combinator/ImplicitConversions$$anonfun$flatten2$1
Asciz	$anonfun$flatten2$1;
Asciz	scala/util/parsing/combinator/ImplicitConversions$$anonfun$headOptionTailToFunList$1;
class	scala/util/parsing/combinator/ImplicitConversions$$anonfun$headOptionTailToFunList$1
Asciz	$anonfun$headOptionTailToFunList$1;
Asciz	java/lang/Object;
class	java/lang/Object
Asciz	scala/ScalaObject;
class	scala/ScalaObject

{
public abstract scala.Function1 flatten2(scala.Function2);
  Signature: (Lscala/Function2;)Lscala/Function1;
  Signature: length = 0x2
   00 05 

public abstract scala.Function1 flatten3(scala.Function3);
  Signature: (Lscala/Function3;)Lscala/Function1;
  Signature: length = 0x2
   00 09 

public abstract scala.Function1 flatten4(scala.Function4);
  Signature: (Lscala/Function4;)Lscala/Function1;
  Signature: length = 0x2
   00 0C 

public abstract scala.Function1 flatten5(scala.Function5);
  Signature: (Lscala/Function5;)Lscala/Function1;
  Signature: length = 0x2
   00 0F 

public abstract scala.Function1 headOptionTailToFunList(scala.Function1);
  Signature: (Lscala/Function1;)Lscala/Function1;
  Signature: length = 0x2
   00 12 

}

