Compiled from "PackratParsers.scala"
public interface scala.util.parsing.combinator.PackratParsers extends scala.util.parsing.combinator.Parsers,scala.ScalaObject
  SourceFile: "PackratParsers.scala"
  ScalaSig: length = 0x1924
   05 00 FFFFFF86 0A 06 08 01 02 FFFFFF84 FFFFFF90 FFFFFF80 FFFFFF81 00 0B 02 0E
   50 61 63 6B 72 61 74 50 61 72 73 65 72 73 0A 02
   03 04 01 0A 63 6F 6D 62 69 6E 61 74 6F 72 0A 02
   05 06 01 07 70 61 72 73 69 6E 67 0A 02 07 08 01
   04 75 74 69 6C 0A 01 09 01 05 73 63 61 6C 61 03
   00 13 04 00 0C 14 18 10 02 0D 12 0D 01 0E 0A 02
   0F 10 01 04 6C 61 6E 67 0A 01 11 01 04 6A 61 76
   61 09 02 13 0E 02 06 4F 62 6A 65 63 74 10 02 15
   16 0D 01 02 09 02 17 02 02 07 50 61 72 73 65 72
   73 10 02 19 1A 0D 01 08 09 02 1B 08 02 0B 53 63
   61 6C 61 4F 62 6A 65 63 74 08 05 1D 00 FFFFFF84 00 1E
   01 06 24 69 6E 69 74 24 14 01 1F 10 02 19 20 09
   02 21 08 02 04 55 6E 69 74 06 04 23 00 00 24 02
   0D 50 61 63 6B 72 61 74 52 65 61 64 65 72 15 02
   25 2E 13 03 22 26 18 10 03 27 2A 2C 0D 01 28 0A
   02 29 04 01 05 69 6E 70 75 74 09 02 2B 28 02 06
   52 65 61 64 65 72 10 02 2D 2E 0C 00 04 08 2F 22
   FFFFFF84 FFFFFF80 FFFFFF84 FFFFFFC2 00 30 02 01 54 11 02 31 34 10 02 19
   32 09 02 33 08 02 07 4E 6F 74 68 69 6E 67 10 02
   19 35 09 02 36 08 02 03 41 6E 79 08 08 38 22 FFFFFF82
   FFFFFF80 FFFFFFA0 FFFFFF80 04 26 01 0A 75 6E 64 65 72 6C 79 69 6E
   67 08 05 3A 22 FFFFFF84 00 3B 01 06 3C 69 6E 69 74 3E
   14 02 3C 3E 10 03 3D 22 2C 0D 01 00 08 05 38 39
   FFFFFFC0 00 26 08 06 40 22 FFFFFFA0 FFFFFF80 04 41 01 34 73 63 61
   6C 61 24 75 74 69 6C 24 70 61 72 73 69 6E 67 24
   63 6F 6D 62 69 6E 61 74 6F 72 24 50 61 63 6B 72
   61 74 50 61 72 73 65 72 73 24 24 63 61 63 68 65
   20 10 04 42 47 49 56 0D 01 43 0A 02 44 45 01 07
   6D 75 74 61 62 6C 65 0A 02 46 08 01 0A 63 6F 6C
   6C 65 63 74 69 6F 6E 09 02 48 43 02 07 48 61 73
   68 4D 61 70 10 04 19 4A 4C 53 09 02 4B 08 02 06
   54 75 70 6C 65 32 30 02 4D 51 10 03 3D 4E 50 09
   02 4F 16 02 06 50 61 72 73 65 72 10 02 2D 51 04
   08 52 22 FFFFFF84 FFFFFF80 FFFFFF80 FFFFFF82 00 30 02 03 5F 24 31 10 02
   27 54 09 02 55 28 02 08 50 6F 73 69 74 69 6F 6E
   30 03 57 FFFFFF83 41 10 04 3D 58 FFFFFF83 40 06 04 59 00 44
   5A 02 09 4D 65 6D 6F 45 6E 74 72 79 15 03 5B FFFFFF83
   1C 13 04 58 0C 18 5C 10 02 19 5D 09 02 5E 08 02
   07 50 72 6F 64 75 63 74 08 08 60 58 FFFFFF82 FFFFFFC8 FFFFFF80 FFFFFF84
   00 61 01 01 72 15 01 62 10 05 19 63 65 FFFFFF83 03 09
   02 64 08 02 06 45 69 74 68 65 72 10 02 3D 66 06
   08 67 00 FFFFFF84 FFFFFF80 FFFFFF80 FFFFFF80 44 68 02 02 4C 52 13 04 66
   0C 18 5C 08 08 6A 66 FFFFFF82 FFFFFFC8 FFFFFF80 FFFFFF84 00 6B 01 04 73
   65 65 64 15 01 6C 30 02 6D 71 10 03 3D 6E 70 09
   02 6F 16 02 0B 50 61 72 73 65 52 65 73 75 6C 74
   10 02 2D 71 04 08 72 00 FFFFFF84 FFFFFF80 FFFFFF80 FFFFFF82 00 30 02 03
   5F 24 35 08 08 74 66 FFFFFF82 FFFFFFC0 FFFFFF80 FFFFFF84 00 75 01 08 73
   65 65 64 5F 24 65 71 14 02 1F 76 08 07 77 73 FFFFFF81
   FFFFFF80 FFFFFFC0 00 78 01 03 78 24 31 30 02 79 7B 10 03 3D
   6E 7A 10 02 2D 7B 04 08 72 00 FFFFFF84 FFFFFF80 FFFFFF80 FFFFFF82 00 30
   08 08 7D 66 FFFFFF82 FFFFFF88 FFFFFFA0 FFFFFFA0 04 7E 01 05 73 65 65 64
   20 30 03 7F FFFFFF81 01 10 04 3D 6E FFFFFF81 00 10 03 2D FFFFFF81
   01 04 08 72 00 FFFFFF84 FFFFFF80 FFFFFF80 FFFFFF82 00 30 08 0A FFFFFF81 03 66
   FFFFFF82 FFFFFFC8 FFFFFF80 FFFFFF84 00 FFFFFF81 04 01 04 72 75 6C 65 15 02 FFFFFF81
   05 30 04 FFFFFF81 06 FFFFFF81 08 10 04 3D 4E FFFFFF81 07 10 03 2D
   FFFFFF81 08 04 09 FFFFFF81 09 00 FFFFFF84 FFFFFF80 FFFFFF80 FFFFFF82 00 30 02 03 5F
   24 36 08 0A FFFFFF81 0B 66 FFFFFF82 FFFFFFC0 FFFFFF80 FFFFFF84 00 FFFFFF81 0C 01 08
   72 75 6C 65 5F 24 65 71 14 03 1F FFFFFF81 0D 08 09 77
   FFFFFF81 0A FFFFFF81 FFFFFF80 FFFFFFC0 00 FFFFFF81 0E 30 04 FFFFFF81 0F FFFFFF81 11 10 04
   3D 4E FFFFFF81 10 10 03 2D FFFFFF81 11 04 09 FFFFFF81 09 00 FFFFFF84 FFFFFF80
   FFFFFF80 FFFFFF82 00 30 08 0A FFFFFF81 13 66 FFFFFF82 FFFFFF88 FFFFFFA0 FFFFFFA0 04 FFFFFF81 14
   01 05 72 75 6C 65 20 30 04 FFFFFF81 15 FFFFFF81 17 10 04 3D
   4E FFFFFF81 16 10 03 2D FFFFFF81 17 04 09 FFFFFF81 09 00 FFFFFF84 FFFFFF80 FFFFFF80
   FFFFFF82 00 30 08 0A FFFFFF81 19 66 FFFFFF82 FFFFFFC8 FFFFFF80 FFFFFF84 00 FFFFFF81 1A 01
   04 68 65 61 64 15 02 FFFFFF81 1B 10 05 19 FFFFFF81 1C FFFFFF81 1E
   09 03 FFFFFF81 1D 08 02 06 4F 70 74 69 6F 6E 10 03 3D
   FFFFFF81 1F 06 0A FFFFFF81 20 00 FFFFFF84 FFFFFF80 FFFFFF80 FFFFFF80 44 FFFFFF81 21 02 04
   48 65 61 64 13 05 FFFFFF81 1F 0C 18 5C 08 0B FFFFFF81 23 FFFFFF81
   1F FFFFFF82 FFFFFFC8 FFFFFF80 FFFFFF84 00 FFFFFF81 24 01 0A 68 65 61 64 50 61
   72 73 65 72 15 02 FFFFFF81 25 30 04 FFFFFF81 26 FFFFFF81 28 10 04
   3D 4E FFFFFF81 27 10 03 2D FFFFFF81 28 04 09 FFFFFF81 29 00 FFFFFF84 FFFFFF80
   FFFFFF80 FFFFFF82 00 30 02 03 5F 24 37 08 0B FFFFFF81 2B FFFFFF81 1F FFFFFF82
   FFFFFFC0 FFFFFF80 FFFFFF84 00 FFFFFF81 2C 01 0E 68 65 61 64 50 61 72 73
   65 72 5F 24 65 71 14 03 1F FFFFFF81 2D 08 09 77 FFFFFF81 2A
   FFFFFF81 FFFFFF80 FFFFFFC0 00 FFFFFF81 2E 30 04 FFFFFF81 2F FFFFFF81 31 10 04 3D 4E
   FFFFFF81 30 10 03 2D FFFFFF81 31 04 09 FFFFFF81 29 00 FFFFFF84 FFFFFF80 FFFFFF80 FFFFFF82
   00 30 08 0B FFFFFF81 33 FFFFFF81 1F FFFFFF82 FFFFFF88 FFFFFFA0 FFFFFFA0 04 FFFFFF81 34 01
   0B 68 65 61 64 50 61 72 73 65 72 20 30 04 FFFFFF81 35
   FFFFFF81 37 10 04 3D 4E FFFFFF81 36 10 03 2D FFFFFF81 37 04 09 FFFFFF81
   29 00 FFFFFF84 FFFFFF80 FFFFFF80 FFFFFF82 00 30 08 0B FFFFFF81 39 FFFFFF81 1F FFFFFF82 FFFFFFC8
   FFFFFF80 FFFFFF84 00 FFFFFF81 3A 01 0B 69 6E 76 6F 6C 76 65 64 53
   65 74 15 02 FFFFFF81 3B 10 06 FFFFFF81 3C FFFFFF81 44 FFFFFF81 47 0E 04
   FFFFFF81 3D FFFFFF81 42 0E 04 FFFFFF81 3E FFFFFF81 41 0D 02 FFFFFF81 3F 0A 03
   FFFFFF81 40 0A 01 06 3C 72 6F 6F 74 3E 09 01 09 09 03
   FFFFFF81 43 08 01 07 70 61 63 6B 61 67 65 09 04 FFFFFF81 45
   FFFFFF81 46 02 04 4C 69 73 74 0A 03 FFFFFF81 43 08 30 04 FFFFFF81
   48 FFFFFF81 4A 10 04 3D 4E FFFFFF81 49 10 03 2D FFFFFF81 4A 04 09
   FFFFFF81 4B 00 FFFFFF84 FFFFFF80 FFFFFF80 FFFFFF82 00 30 02 03 5F 24 38 08 0B
   FFFFFF81 4D FFFFFF81 1F FFFFFF82 FFFFFFC0 FFFFFF80 FFFFFF84 00 FFFFFF81 4E 01 0F 69 6E 76
   6F 6C 76 65 64 53 65 74 5F 24 65 71 14 03 1F FFFFFF81
   4F 08 09 77 FFFFFF81 4C FFFFFF81 FFFFFF80 FFFFFFC0 00 FFFFFF81 50 10 06 FFFFFF81 3C
   FFFFFF81 44 FFFFFF81 51 30 04 FFFFFF81 52 FFFFFF81 54 10 04 3D 4E FFFFFF81 53
   10 03 2D FFFFFF81 54 04 09 FFFFFF81 4B 00 FFFFFF84 FFFFFF80 FFFFFF80 FFFFFF82 00 30
   08 0B FFFFFF81 56 FFFFFF81 1F FFFFFF82 FFFFFF88 FFFFFFA0 FFFFFFA0 04 FFFFFF81 57 01 0C 69
   6E 76 6F 6C 76 65 64 53 65 74 20 10 06 FFFFFF81 3C FFFFFF81
   44 FFFFFF81 58 30 04 FFFFFF81 59 FFFFFF81 5B 10 04 3D 4E FFFFFF81 5A 10
   03 2D FFFFFF81 5B 04 09 FFFFFF81 4B 00 FFFFFF84 FFFFFF80 FFFFFF80 FFFFFF82 00 30 08
   0B FFFFFF81 5D FFFFFF81 1F FFFFFF82 FFFFFFC8 FFFFFF80 FFFFFF84 00 FFFFFF81 5E 01 07 65 76
   61 6C 53 65 74 15 02 FFFFFF81 5F 10 06 FFFFFF81 3C FFFFFF81 44 FFFFFF81
   60 30 04 FFFFFF81 61 FFFFFF81 63 10 04 3D 4E FFFFFF81 62 10 03 2D
   FFFFFF81 63 04 09 FFFFFF81 64 00 FFFFFF84 FFFFFF80 FFFFFF80 FFFFFF82 00 30 02 03 5F
   24 39 08 0B FFFFFF81 66 FFFFFF81 1F FFFFFF82 FFFFFFC0 FFFFFF80 FFFFFF84 00 FFFFFF81 67 01
   0B 65 76 61 6C 53 65 74 5F 24 65 71 14 03 1F FFFFFF81
   68 08 09 77 FFFFFF81 65 FFFFFF81 FFFFFF80 FFFFFFC0 00 FFFFFF81 69 10 06 FFFFFF81 3C
   FFFFFF81 44 FFFFFF81 6A 30 04 FFFFFF81 6B FFFFFF81 6D 10 04 3D 4E FFFFFF81 6C
   10 03 2D FFFFFF81 6D 04 09 FFFFFF81 64 00 FFFFFF84 FFFFFF80 FFFFFF80 FFFFFF82 00 30
   08 0B FFFFFF81 6F FFFFFF81 1F FFFFFF82 FFFFFF88 FFFFFFA0 FFFFFFA0 04 FFFFFF81 70 01 08 65
   76 61 6C 53 65 74 20 10 06 FFFFFF81 3C FFFFFF81 44 FFFFFF81 71 30
   04 FFFFFF81 72 FFFFFF81 74 10 04 3D 4E FFFFFF81 73 10 03 2D FFFFFF81 74
   04 09 FFFFFF81 64 00 FFFFFF84 FFFFFF80 FFFFFF80 FFFFFF82 00 30 08 07 3A FFFFFF81 1F
   FFFFFF84 00 FFFFFF81 76 14 08 FFFFFF81 1E FFFFFF81 77 FFFFFF81 7C FFFFFF82 02 08 08
   FFFFFF81 23 FFFFFF81 75 FFFFFFC0 00 FFFFFF81 78 30 04 FFFFFF81 79 FFFFFF81 7B 10 04
   3D 4E FFFFFF81 7A 10 03 2D FFFFFF81 7B 04 0A FFFFFF81 29 FFFFFF81 75 FFFFFF84
   FFFFFF80 FFFFFF80 FFFFFF82 00 30 08 08 FFFFFF81 39 FFFFFF81 75 FFFFFFC0 00 FFFFFF81 7D 10
   06 FFFFFF81 3C FFFFFF81 44 FFFFFF81 7E 30 04 FFFFFF81 7F FFFFFF82 01 10 04 3D
   4E FFFFFF82 00 10 03 2D FFFFFF82 01 04 0A FFFFFF81 4B FFFFFF81 75 FFFFFF84 FFFFFF80
   FFFFFF80 FFFFFF82 00 30 08 08 FFFFFF81 5D FFFFFF81 75 FFFFFFC0 00 FFFFFF82 03 10 06
   FFFFFF81 3C FFFFFF81 44 FFFFFF82 04 30 04 FFFFFF82 05 FFFFFF82 07 10 04 3D 4E
   FFFFFF82 06 10 03 2D FFFFFF82 07 04 0A FFFFFF81 64 FFFFFF81 75 FFFFFF84 FFFFFF80 FFFFFF80
   FFFFFF82 00 30 08 08 FFFFFF82 09 FFFFFF81 1F FFFFFF84 00 FFFFFF82 0A 01 07 67
   65 74 48 65 61 64 15 02 FFFFFF82 0B 10 03 3D 4E 34 08
   0A FFFFFF82 0D FFFFFF81 1F FFFFFF81 FFFFFF80 FFFFFF84 00 FFFFFF82 0E 01 04 63 6F 70
   79 14 08 FFFFFF81 1E FFFFFF82 0F FFFFFF82 10 FFFFFF82 11 08 0A FFFFFF81 23 FFFFFF82
   0C FFFFFF90 FFFFFF80 FFFFFFC0 00 FFFFFF81 78 08 0A FFFFFF81 39 FFFFFF82 0C FFFFFF90 FFFFFF80 FFFFFFC0
   00 FFFFFF81 7D 08 0A FFFFFF81 5D FFFFFF82 0C FFFFFF90 FFFFFF80 FFFFFFC0 00 FFFFFF82 03 08
   0A FFFFFF82 13 FFFFFF81 1F FFFFFF91 FFFFFF80 FFFFFF84 00 FFFFFF82 14 01 0E 63 6F 70
   79 24 64 65 66 61 75 6C 74 24 31 15 02 FFFFFF82 15 2A
   04 FFFFFF82 0B FFFFFF82 16 2B 02 FFFFFF82 17 10 04 FFFFFF82 18 FFFFFF82 1D 0D
   02 FFFFFF82 19 0A 04 FFFFFF82 1A FFFFFF82 1B 01 09 75 6E 63 68 65
   63 6B 65 64 0A 03 FFFFFF82 1C 08 01 0A 61 6E 6E 6F 74
   61 74 69 6F 6E 09 04 FFFFFF82 1E FFFFFF82 19 02 11 75 6E 63
   68 65 63 6B 65 64 56 61 72 69 61 6E 63 65 08 0A
   FFFFFF82 20 FFFFFF81 1F FFFFFF91 FFFFFF80 FFFFFF84 00 FFFFFF82 21 01 0E 63 6F 70 79
   24 64 65 66 61 75 6C 74 24 32 15 02 FFFFFF82 22 2A 04
   FFFFFF81 3B FFFFFF82 16 08 0A FFFFFF82 24 FFFFFF81 1F FFFFFF91 FFFFFF80 FFFFFF84 00 FFFFFF82 25
   01 0E 63 6F 70 79 24 64 65 66 61 75 6C 74 24 33
   15 02 FFFFFF82 26 2A 04 FFFFFF81 5F FFFFFF82 16 08 0B FFFFFF82 28 FFFFFF81 1F
   FFFFFF84 FFFFFF80 FFFFFF80 FFFFFF84 20 FFFFFF82 29 01 08 68 61 73 68 43 6F 64
   65 14 02 FFFFFF82 2A 10 03 19 FFFFFF82 2B 09 03 FFFFFF82 2C 08 02
   03 49 6E 74 08 0B FFFFFF82 2E FFFFFF81 1F FFFFFF84 FFFFFF80 FFFFFF80 FFFFFF84 20 FFFFFF82
   2F 01 08 74 6F 53 74 72 69 6E 67 14 02 FFFFFF82 30 10
   04 FFFFFF82 31 FFFFFF82 34 0E 03 19 FFFFFF82 32 09 03 FFFFFF82 33 08 01
   06 50 72 65 64 65 66 09 04 FFFFFF82 35 FFFFFF82 36 02 06 53
   74 72 69 6E 67 0A 03 FFFFFF82 33 08 08 0B FFFFFF82 38 FFFFFF81 1F
   FFFFFF84 FFFFFF80 FFFFFF80 FFFFFF84 20 FFFFFF82 39 01 06 65 71 75 61 6C 73 14
   04 FFFFFF82 3A FFFFFF82 3D 10 03 19 FFFFFF82 3B 09 03 FFFFFF82 3C 08 02
   07 42 6F 6F 6C 65 61 6E 08 08 77 FFFFFF82 37 FFFFFF81 FFFFFF80 FFFFFFC0
   00 34 08 0B FFFFFF82 3F FFFFFF81 1F FFFFFF84 FFFFFF80 FFFFFF80 FFFFFF84 20 FFFFFF82 40 01
   0D 70 72 6F 64 75 63 74 50 72 65 66 69 78 15 02
   FFFFFF82 41 10 03 0D FFFFFF82 42 09 03 FFFFFF82 35 0E 08 0B FFFFFF82 44
   FFFFFF81 1F FFFFFF84 FFFFFF80 FFFFFF80 FFFFFF84 20 FFFFFF82 45 01 0C 70 72 6F 64 75
   63 74 41 72 69 74 79 15 02 FFFFFF82 2A 08 0B FFFFFF82 47 FFFFFF81
   1F FFFFFF84 FFFFFF80 FFFFFF80 FFFFFF84 20 FFFFFF82 48 01 0E 70 72 6F 64 75 63
   74 45 6C 65 6D 65 6E 74 14 03 34 FFFFFF82 49 08 09 77
   FFFFFF82 46 FFFFFF81 FFFFFF80 FFFFFFC0 00 FFFFFF82 2A 08 0B FFFFFF82 4B FFFFFF81 1F FFFFFF84 FFFFFF80
   FFFFFF80 FFFFFF84 20 FFFFFF82 4C 01 08 63 61 6E 45 71 75 61 6C 14
   04 FFFFFF82 3A FFFFFF82 4D 08 08 77 FFFFFF82 4A FFFFFF81 FFFFFF80 FFFFFFC0 00 34 28
   04 FFFFFF81 1F FFFFFF82 4F 10 03 19 FFFFFF82 50 09 03 FFFFFF82 51 08 02
   0C 73 65 72 69 61 6C 69 7A 61 62 6C 65 08 0A FFFFFF82
   53 66 FFFFFF82 FFFFFFC0 FFFFFF80 FFFFFF84 00 FFFFFF82 54 01 08 68 65 61 64 5F
   24 65 71 14 03 1F FFFFFF82 55 08 09 77 FFFFFF82 52 FFFFFF81 FFFFFF80 FFFFFFC0
   00 FFFFFF81 1B 08 0A FFFFFF82 57 66 FFFFFF82 FFFFFF88 FFFFFFA0 FFFFFFA0 04 FFFFFF81 1B 01
   05 68 65 61 64 20 08 06 3A 66 FFFFFF84 00 FFFFFF82 59 14 07
   65 FFFFFF82 5A FFFFFF82 5F FFFFFF82 64 08 07 6A FFFFFF82 58 FFFFFFC0 00 FFFFFF82 5B
   30 04 FFFFFF82 5C FFFFFF82 5E 10 04 3D 6E FFFFFF82 5D 10 03 2D FFFFFF82
   5E 04 09 72 FFFFFF82 58 FFFFFF84 FFFFFF80 FFFFFF80 FFFFFF82 00 30 08 08 FFFFFF81 03
   FFFFFF82 58 FFFFFFC0 00 FFFFFF82 60 30 04 FFFFFF82 61 FFFFFF82 63 10 04 3D 4E
   FFFFFF82 62 10 03 2D FFFFFF82 63 04 0A FFFFFF81 09 FFFFFF82 58 FFFFFF84 FFFFFF80 FFFFFF80
   FFFFFF82 00 30 08 08 FFFFFF81 19 FFFFFF82 58 FFFFFFC0 00 FFFFFF81 1B 08 07 FFFFFF82
   66 66 FFFFFF84 00 FFFFFF82 67 01 06 67 65 74 50 6F 73 15 01
   53 08 09 FFFFFF82 0D 66 FFFFFF81 FFFFFF80 FFFFFF84 00 FFFFFF82 69 14 07 65 FFFFFF82
   6A FFFFFF82 6B FFFFFF82 6C 08 09 6A FFFFFF82 68 FFFFFF90 FFFFFF80 FFFFFFC0 00 FFFFFF82 5B
   08 0A FFFFFF81 03 FFFFFF82 68 FFFFFF90 FFFFFF80 FFFFFFC0 00 FFFFFF82 60 08 0A FFFFFF81 19
   FFFFFF82 68 FFFFFF90 FFFFFF80 FFFFFFC0 00 FFFFFF81 1B 08 09 FFFFFF82 13 66 FFFFFF91 FFFFFF80 FFFFFF84
   00 FFFFFF82 6E 15 02 FFFFFF82 6F 2A 04 FFFFFF82 70 FFFFFF82 16 10 03 3D
   6E 34 08 09 FFFFFF82 20 66 FFFFFF91 FFFFFF80 FFFFFF84 00 FFFFFF82 14 08 09 FFFFFF82
   24 66 FFFFFF91 FFFFFF80 FFFFFF84 00 FFFFFF82 73 15 02 FFFFFF82 74 2A 04 FFFFFF81 1B
   FFFFFF82 16 08 0A FFFFFF82 28 66 FFFFFF84 FFFFFF80 FFFFFF80 FFFFFF84 20 FFFFFF82 29 08 0A
   FFFFFF82 2E 66 FFFFFF84 FFFFFF80 FFFFFF80 FFFFFF84 20 FFFFFF82 2F 08 0A FFFFFF82 38 66 FFFFFF84
   FFFFFF80 FFFFFF80 FFFFFF84 20 FFFFFF82 78 14 04 FFFFFF82 3A FFFFFF82 79 08 08 77 FFFFFF82
   77 FFFFFF81 FFFFFF80 FFFFFFC0 00 34 08 0A FFFFFF82 3F 66 FFFFFF84 FFFFFF80 FFFFFF80 FFFFFF84 20
   FFFFFF82 40 08 0A FFFFFF82 44 66 FFFFFF84 FFFFFF80 FFFFFF80 FFFFFF84 20 FFFFFF82 45 08 0A
   FFFFFF82 47 66 FFFFFF84 FFFFFF80 FFFFFF80 FFFFFF84 20 FFFFFF82 7D 14 03 34 FFFFFF82 7E 08
   09 77 FFFFFF82 7C FFFFFF81 FFFFFF80 FFFFFFC0 00 FFFFFF82 2A 08 0A FFFFFF82 4B 66 FFFFFF84
   FFFFFF80 FFFFFF80 FFFFFF84 20 FFFFFF83 00 14 04 FFFFFF82 3A FFFFFF83 01 08 08 77 FFFFFF82
   7F FFFFFF81 FFFFFF80 FFFFFFC0 00 34 28 03 66 FFFFFF82 4F 30 04 FFFFFF83 04 FFFFFF83
   06 10 04 3D 6E FFFFFF83 05 10 03 2D FFFFFF83 06 04 09 FFFFFF83 07
   00 FFFFFF84 FFFFFF80 FFFFFF80 FFFFFF82 00 30 02 03 5F 24 34 08 0A FFFFFF83 09
   58 FFFFFF82 FFFFFFC0 FFFFFF80 FFFFFF84 00 FFFFFF83 0A 01 05 72 5F 24 65 71 14
   03 1F FFFFFF83 0B 08 09 77 FFFFFF83 08 FFFFFF81 FFFFFF80 FFFFFFC0 00 FFFFFF83 0C 10
   05 19 63 65 FFFFFF83 0D 30 04 FFFFFF83 0E FFFFFF83 10 10 04 3D 6E
   FFFFFF83 0F 10 03 2D FFFFFF83 10 04 09 FFFFFF83 07 00 FFFFFF84 FFFFFF80 FFFFFF80 FFFFFF82
   00 30 08 0A FFFFFF83 12 58 FFFFFF82 FFFFFF88 FFFFFFA0 FFFFFFA0 04 FFFFFF83 13 01 02
   72 20 10 05 19 63 65 FFFFFF83 14 30 04 FFFFFF83 15 FFFFFF83 17 10
   04 3D 6E FFFFFF83 16 10 03 2D FFFFFF83 17 04 09 FFFFFF83 07 00 FFFFFF84
   FFFFFF80 FFFFFF80 FFFFFF82 00 30 08 06 3A 58 FFFFFF84 00 FFFFFF83 19 14 04 FFFFFF83
   1A FFFFFF83 1D 10 04 3D 58 FFFFFF83 1B 10 03 2D FFFFFF83 1C 04 08
   2F 58 FFFFFF84 FFFFFF80 FFFFFF84 FFFFFFC2 00 30 08 07 60 FFFFFF83 18 FFFFFFC0 00 FFFFFF83
   1E 10 05 19 63 65 FFFFFF83 1F 30 04 FFFFFF83 20 FFFFFF83 22 10 04
   3D 6E FFFFFF83 21 10 03 2D FFFFFF83 22 04 0A FFFFFF83 07 FFFFFF83 18 FFFFFF84
   FFFFFF80 FFFFFF80 FFFFFF82 00 30 08 07 FFFFFF83 24 58 FFFFFF84 00 FFFFFF83 25 01 09
   67 65 74 52 65 73 75 6C 74 15 02 FFFFFF83 26 10 04 3D
   6E FFFFFF83 1B 08 09 FFFFFF82 0D 58 FFFFFF81 FFFFFF80 FFFFFF84 00 FFFFFF83 28 15 04
   FFFFFF83 29 FFFFFF83 2C 14 04 FFFFFF83 2A FFFFFF83 2D 10 04 3D 58 FFFFFF83 2B
   10 03 2D FFFFFF83 2C 04 09 2F FFFFFF83 27 FFFFFF84 FFFFFF80 FFFFFF80 FFFFFFC2 00 30
   08 09 60 FFFFFF83 27 FFFFFF90 FFFFFF80 FFFFFFC0 00 FFFFFF83 1E 08 09 FFFFFF82 13 58
   FFFFFF91 FFFFFF80 FFFFFF84 00 FFFFFF83 2F 15 04 FFFFFF83 30 FFFFFF83 31 2A 03 62 FFFFFF82
   16 04 09 2F FFFFFF83 2E FFFFFF84 FFFFFF80 FFFFFF80 FFFFFFC2 00 30 08 0A FFFFFF82 28
   58 FFFFFF84 FFFFFF80 FFFFFF80 FFFFFF84 20 FFFFFF82 29 08 0A FFFFFF82 2E 58 FFFFFF84 FFFFFF80 FFFFFF80
   FFFFFF84 20 FFFFFF82 2F 08 0A FFFFFF82 38 58 FFFFFF84 FFFFFF80 FFFFFF80 FFFFFF84 20 FFFFFF83 35
   14 04 FFFFFF82 3A FFFFFF83 36 08 08 77 FFFFFF83 34 FFFFFF81 FFFFFF80 FFFFFFC0 00 34
   08 0A FFFFFF82 3F 58 FFFFFF84 FFFFFF80 FFFFFF80 FFFFFF84 20 FFFFFF82 40 08 0A FFFFFF82 44
   58 FFFFFF84 FFFFFF80 FFFFFF80 FFFFFF84 20 FFFFFF82 45 08 0A FFFFFF82 47 58 FFFFFF84 FFFFFF80 FFFFFF80
   FFFFFF84 20 FFFFFF83 3A 14 03 34 FFFFFF83 3B 08 09 77 FFFFFF83 39 FFFFFF81 FFFFFF80
   FFFFFFC0 00 FFFFFF82 2A 08 0A FFFFFF82 4B 58 FFFFFF84 FFFFFF80 FFFFFF80 FFFFFF84 20 FFFFFF83 3D
   14 04 FFFFFF82 3A FFFFFF83 3E 08 08 77 FFFFFF83 3C FFFFFF81 FFFFFF80 FFFFFFC0 00 34
   28 03 58 FFFFFF82 4F 10 03 2D FFFFFF83 41 04 09 FFFFFF83 42 22 FFFFFF84
   FFFFFF80 FFFFFF80 FFFFFF82 00 30 02 03 5F 24 32 08 08 FFFFFF83 44 22 FFFFFFA0
   FFFFFF80 04 FFFFFF83 45 01 3D 73 63 61 6C 61 24 75 74 69 6C
   24 70 61 72 73 69 6E 67 24 63 6F 6D 62 69 6E 61
   74 6F 72 24 50 61 63 6B 72 61 74 50 61 72 73 65
   72 73 24 24 72 65 63 75 72 73 69 6F 6E 48 65 61
   64 73 20 10 05 42 47 53 FFFFFF81 1E 08 0A FFFFFF83 47 22 FFFFFFC0
   FFFFFF80 FFFFFF84 00 00 FFFFFF83 48 01 39 73 63 61 6C 61 24 75 74
   69 6C 24 70 61 72 73 69 6E 67 24 63 6F 6D 62 69
   6E 61 74 6F 72 24 50 61 63 6B 72 61 74 50 61 72
   73 65 72 73 24 24 6C 72 53 74 61 63 6B 5F 24 65
   71 14 03 1F FFFFFF83 49 08 09 77 FFFFFF83 46 FFFFFF81 FFFFFF80 FFFFFFC0 00 FFFFFF83
   4A 10 05 FFFFFF81 3C FFFFFF81 44 65 08 08 FFFFFF83 4C 22 FFFFFFA0 FFFFFFA0 04
   FFFFFF83 4A 01 36 73 63 61 6C 61 24 75 74 69 6C 24 70
   61 72 73 69 6E 67 24 63 6F 6D 62 69 6E 61 74 6F
   72 24 50 61 63 6B 72 61 74 50 61 72 73 65 72 73
   24 24 6C 72 53 74 61 63 6B 20 08 07 FFFFFF83 4E 22 FFFFFF84
   20 FFFFFF83 4F 01 06 73 6F 75 72 63 65 15 02 FFFFFF83 50 10
   03 0D FFFFFF83 51 09 03 FFFFFF83 52 0E 02 0C 43 68 61 72 53
   65 71 75 65 6E 63 65 08 07 FFFFFF83 54 22 FFFFFF84 20 FFFFFF82 45
   01 06 6F 66 66 73 65 74 08 07 FFFFFF83 56 22 FFFFFF84 00 FFFFFF83
   57 01 05 66 69 72 73 74 15 01 2C 08 07 FFFFFF83 59 22
   FFFFFF84 00 FFFFFF83 5A 01 04 72 65 73 74 15 01 26 08 07 FFFFFF83
   5C 22 FFFFFF84 00 FFFFFF82 67 01 03 70 6F 73 08 07 FFFFFF83 5E 22
   FFFFFF84 00 FFFFFF83 5F 01 05 61 74 45 6E 64 15 02 FFFFFF82 3A 08
   0A FFFFFF83 61 22 FFFFFFC2 FFFFFF80 FFFFFF84 00 00 FFFFFF83 62 01 33 73 63 61
   6C 61 24 75 74 69 6C 24 70 61 72 73 69 6E 67 24
   63 6F 6D 62 69 6E 61 74 6F 72 24 50 61 63 6B 72
   61 74 50 61 72 73 65 72 73 24 24 63 61 63 68 65
   15 02 FFFFFF83 63 10 06 42 47 FFFFFF83 64 FFFFFF83 69 10 05 19 4A
   FFFFFF83 65 53 30 04 FFFFFF83 66 FFFFFF83 68 10 04 3D 4E FFFFFF83 67 10
   03 2D FFFFFF83 68 04 08 52 22 FFFFFF84 FFFFFF80 FFFFFF80 FFFFFF82 00 30 30 04
   FFFFFF83 6A FFFFFF83 6C 10 04 3D 58 FFFFFF83 6B 10 03 2D FFFFFF83 6C 04
   09 FFFFFF83 42 22 FFFFFF84 FFFFFF80 FFFFFF80 FFFFFF82 00 30 08 08 FFFFFF83 6E 22 FFFFFF84
   00 00 FFFFFF83 6F 01 3A 73 63 61 6C 61 24 75 74 69 6C
   24 70 61 72 73 69 6E 67 24 63 6F 6D 62 69 6E 61
   74 6F 72 24 50 61 63 6B 72 61 74 50 61 72 73 65
   72 73 24 24 67 65 74 46 72 6F 6D 43 61 63 68 65
   15 04 FFFFFF83 70 FFFFFF83 74 14 04 FFFFFF83 71 FFFFFF83 75 10 05 19 FFFFFF81
   1C FFFFFF83 72 10 04 3D 58 FFFFFF83 73 10 03 2D FFFFFF83 74 04 09
   2F FFFFFF83 6D FFFFFF84 FFFFFF80 FFFFFF80 FFFFFFC2 00 30 08 08 FFFFFF83 76 FFFFFF83 6D FFFFFFC0
   00 FFFFFF83 77 01 01 70 10 04 3D 4E FFFFFF83 73 08 08 FFFFFF83 79
   22 FFFFFF84 00 00 FFFFFF83 7A 01 3F 73 63 61 6C 61 24 75 74
   69 6C 24 70 61 72 73 69 6E 67 24 63 6F 6D 62 69
   6E 61 74 6F 72 24 50 61 63 6B 72 61 74 50 61 72
   73 65 72 73 24 24 75 70 64 61 74 65 43 61 63 68
   65 41 6E 64 47 65 74 15 04 FFFFFF83 7B FFFFFF83 7E 14 06 FFFFFF83
   7C FFFFFF83 7F FFFFFF84 01 10 04 3D 58 FFFFFF83 7D 10 03 2D FFFFFF83 7E
   04 09 2F FFFFFF83 78 FFFFFF84 FFFFFF80 FFFFFF80 FFFFFFC2 00 30 08 08 FFFFFF83 76 FFFFFF83
   78 FFFFFFC0 00 FFFFFF84 00 10 04 3D 4E FFFFFF83 7D 08 08 FFFFFF84 02 FFFFFF83
   78 FFFFFFC0 00 FFFFFF83 7C 01 01 77 08 0A FFFFFF84 04 22 FFFFFFC2 FFFFFF80 FFFFFF84
   00 00 FFFFFF84 05 01 3C 73 63 61 6C 61 24 75 74 69 6C
   24 70 61 72 73 69 6E 67 24 63 6F 6D 62 69 6E 61
   74 6F 72 24 50 61 63 6B 72 61 74 50 61 72 73 65
   72 73 24 24 72 65 63 75 72 73 69 6F 6E 48 65 61
   64 73 15 02 FFFFFF83 45 08 0A FFFFFF84 07 22 FFFFFFC0 FFFFFF80 FFFFFF84 00 00
   FFFFFF84 08 01 35 73 63 61 6C 61 24 75 74 69 6C 24 70
   61 72 73 69 6E 67 24 63 6F 6D 62 69 6E 61 74 6F
   72 24 50 61 63 6B 72 61 74 50 61 72 73 65 72 73
   24 24 6C 72 53 74 61 63 6B 15 02 FFFFFF83 4A 08 07 FFFFFF84
   0A 00 FFFFFF84 20 FFFFFF84 0B 01 06 70 68 72 61 73 65 15 04
   FFFFFF84 0C FFFFFF84 19 14 04 FFFFFF84 0D FFFFFF84 1A 10 05 3D FFFFFF84 0E FFFFFF84
   18 06 07 FFFFFF84 0F 00 FFFFFF81 00 FFFFFF84 10 02 0D 50 61 63 6B
   72 61 74 50 61 72 73 65 72 15 04 FFFFFF84 11 FFFFFF84 14 13
   05 FFFFFF84 0E FFFFFF84 12 18 10 04 3D 4E FFFFFF84 13 10 03 2D FFFFFF84
   14 04 09 2F FFFFFF84 0E FFFFFF84 FFFFFF80 FFFFFF84 FFFFFFC2 00 30 08 07 3A FFFFFF84
   0E FFFFFF84 00 FFFFFF84 16 14 02 FFFFFF84 17 10 05 3D FFFFFF84 0E FFFFFF84 13
   10 03 2D FFFFFF84 19 04 09 2F FFFFFF84 09 FFFFFF84 FFFFFF80 FFFFFF80 FFFFFFC2 00 30
   08 08 FFFFFF83 76 FFFFFF84 09 FFFFFFC0 00 FFFFFF84 1B 10 04 3D 4E FFFFFF84 18
   08 07 FFFFFF84 1D 00 FFFFFF84 04 FFFFFF84 1E 01 10 67 65 74 50 6F
   73 46 72 6F 6D 52 65 73 75 6C 74 14 03 53 FFFFFF84 1F
   08 07 60 FFFFFF84 1C FFFFFFC0 00 FFFFFF84 20 30 04 FFFFFF84 21 FFFFFF84 23 10
   04 3D 6E FFFFFF84 22 10 03 2D FFFFFF84 23 04 0A FFFFFF84 24 FFFFFF84 1C
   FFFFFF84 FFFFFF80 FFFFFF80 FFFFFF82 00 30 02 03 5F 24 33 07 09 FFFFFF84 26 00
   FFFFFF81 FFFFFF80 FFFFFF88 06 FFFFFF84 27 01 09 4D 65 6D 6F 45 6E 74 72
   79 10 03 3D FFFFFF84 28 06 09 59 00 FFFFFF84 FFFFFF81 FFFFFF80 FFFFFF88 06 FFFFFF84
   29 13 04 FFFFFF84 28 0C 18 08 07 3A FFFFFF84 28 FFFFFF84 00 FFFFFF84 2B
   14 02 FFFFFF84 27 08 0A FFFFFF84 2D FFFFFF84 28 FFFFFF81 FFFFFF80 FFFFFF84 40 FFFFFF84 2E
   01 05 61 70 70 6C 79 15 04 FFFFFF84 2F FFFFFF84 32 14 04 FFFFFF84
   30 FFFFFF84 33 10 04 3D 58 FFFFFF84 31 10 03 2D FFFFFF84 32 04 09
   2F FFFFFF84 2C FFFFFF84 FFFFFF80 FFFFFF80 FFFFFFC2 00 30 08 07 60 FFFFFF84 2C FFFFFFC0 00
   FFFFFF84 34 10 05 19 63 65 FFFFFF84 35 30 04 FFFFFF84 36 FFFFFF84 38 10
   04 3D 6E FFFFFF84 37 10 03 2D FFFFFF84 38 04 0A FFFFFF83 07 FFFFFF84 2C
   FFFFFF84 FFFFFF80 FFFFFF80 FFFFFF82 00 30 08 0A FFFFFF84 3A FFFFFF84 28 FFFFFF81 FFFFFF80 FFFFFF84 40
   FFFFFF84 3B 01 07 75 6E 61 70 70 6C 79 15 04 FFFFFF84 3C FFFFFF84
   42 14 04 FFFFFF84 3D FFFFFF84 3E 10 04 19 FFFFFF81 1C 62 08 08 FFFFFF84
   3F FFFFFF84 39 FFFFFFC0 00 FFFFFF84 40 01 03 78 24 30 10 04 3D 58
   FFFFFF84 41 10 03 2D FFFFFF84 42 04 09 2F FFFFFF84 39 FFFFFF84 FFFFFF80 FFFFFF80 FFFFFFC2
   00 30 07 09 FFFFFF84 44 00 FFFFFF81 FFFFFF80 FFFFFF88 06 FFFFFF84 45 01 02 4C
   52 10 03 3D FFFFFF84 46 06 09 67 00 FFFFFF84 FFFFFF81 FFFFFF80 FFFFFF88 06 FFFFFF84
   47 13 06 FFFFFF84 46 0C FFFFFF84 48 18 10 0A 19 FFFFFF84 49 FFFFFF84 4B
   FFFFFF84 4F FFFFFF81 1B 65 09 03 FFFFFF84 4A 08 02 09 46 75 6E 63
   74 69 6F 6E 33 30 04 FFFFFF84 4C FFFFFF84 4E 10 04 3D 6E FFFFFF84
   4D 10 03 2D FFFFFF84 4E 04 09 72 FFFFFF84 46 FFFFFF84 FFFFFF80 FFFFFF80 FFFFFF82 00
   30 30 04 FFFFFF84 50 FFFFFF84 52 10 04 3D 4E FFFFFF84 51 10 03 2D
   FFFFFF84 52 04 0A FFFFFF81 09 FFFFFF84 46 FFFFFF84 FFFFFF80 FFFFFF80 FFFFFF82 00 30 08 07
   3A FFFFFF84 46 FFFFFF84 00 FFFFFF84 54 14 02 FFFFFF84 45 08 0A FFFFFF84 2D FFFFFF84
   46 FFFFFF81 FFFFFF80 FFFFFF84 40 FFFFFF84 56 14 07 65 FFFFFF84 57 FFFFFF84 5C FFFFFF84 61
   08 07 6A FFFFFF84 55 FFFFFFC0 00 FFFFFF84 58 30 04 FFFFFF84 59 FFFFFF84 5B 10
   04 3D 6E FFFFFF84 5A 10 03 2D FFFFFF84 5B 04 09 72 FFFFFF84 55 FFFFFF84
   FFFFFF80 FFFFFF80 FFFFFF82 00 30 08 08 FFFFFF81 03 FFFFFF84 55 FFFFFFC0 00 FFFFFF84 5D 30
   04 FFFFFF84 5E FFFFFF84 60 10 04 3D 4E FFFFFF84 5F 10 03 2D FFFFFF84 60
   04 0A FFFFFF81 09 FFFFFF84 55 FFFFFF84 FFFFFF80 FFFFFF80 FFFFFF82 00 30 08 08 FFFFFF81 19
   FFFFFF84 55 FFFFFFC0 00 FFFFFF81 1B 08 0A FFFFFF84 3A FFFFFF84 46 FFFFFF81 FFFFFF80 FFFFFF84 40
   FFFFFF84 63 14 04 FFFFFF84 64 FFFFFF84 68 10 05 19 FFFFFF81 1C FFFFFF84 65 10
   09 19 FFFFFF84 66 FFFFFF82 70 FFFFFF82 0B FFFFFF81 1B 09 03 FFFFFF84 67 08 02
   06 54 75 70 6C 65 33 08 07 FFFFFF84 3F FFFFFF84 62 FFFFFFC0 00 65
   07 09 FFFFFF84 6A 00 FFFFFF81 FFFFFF80 FFFFFF88 06 FFFFFF84 6B 01 04 48 65 61
   64 10 03 3D FFFFFF84 6C 06 0A FFFFFF81 20 00 FFFFFF84 FFFFFF81 FFFFFF80 FFFFFF88 06
   FFFFFF84 6D 13 06 FFFFFF84 6C 0C FFFFFF84 6E 18 10 0B 19 FFFFFF84 49 FFFFFF84
   6F FFFFFF84 73 FFFFFF84 78 FFFFFF81 1E 30 04 FFFFFF84 70 FFFFFF84 72 10 04 3D
   4E FFFFFF84 71 10 03 2D FFFFFF84 72 04 0A FFFFFF81 29 FFFFFF84 6C FFFFFF84 FFFFFF80
   FFFFFF80 FFFFFF82 00 30 10 06 FFFFFF81 3C FFFFFF81 44 FFFFFF84 74 30 04 FFFFFF84 75
   FFFFFF84 77 10 04 3D 4E FFFFFF84 76 10 03 2D FFFFFF84 77 04 0A FFFFFF81
   4B FFFFFF84 6C FFFFFF84 FFFFFF80 FFFFFF80 FFFFFF82 00 30 10 06 FFFFFF81 3C FFFFFF81 44 FFFFFF84
   79 30 04 FFFFFF84 7A FFFFFF84 7C 10 04 3D 4E FFFFFF84 7B 10 03 2D
   FFFFFF84 7C 04 0A FFFFFF81 64 FFFFFF84 6C FFFFFF84 FFFFFF80 FFFFFF80 FFFFFF82 00 30 08 07
   3A FFFFFF84 6C FFFFFF84 00 FFFFFF84 7E 14 02 FFFFFF84 6B 08 0A FFFFFF84 2D FFFFFF84
   6C FFFFFF81 FFFFFF80 FFFFFF84 40 FFFFFF85 00 14 08 FFFFFF81 1E FFFFFF85 01 FFFFFF85 06 FFFFFF85
   0C 08 08 FFFFFF81 23 FFFFFF84 7F FFFFFFC0 00 FFFFFF85 02 30 04 FFFFFF85 03 FFFFFF85
   05 10 04 3D 4E FFFFFF85 04 10 03 2D FFFFFF85 05 04 0A FFFFFF81 29
   FFFFFF84 7F FFFFFF84 FFFFFF80 FFFFFF80 FFFFFF82 00 30 08 08 FFFFFF81 39 FFFFFF84 7F FFFFFFC0 00
   FFFFFF85 07 10 06 FFFFFF81 3C FFFFFF81 44 FFFFFF85 08 30 04 FFFFFF85 09 FFFFFF85 0B
   10 04 3D 4E FFFFFF85 0A 10 03 2D FFFFFF85 0B 04 0A FFFFFF81 4B FFFFFF84
   7F FFFFFF84 FFFFFF80 FFFFFF80 FFFFFF82 00 30 08 08 FFFFFF81 5D FFFFFF84 7F FFFFFFC0 00 FFFFFF85
   0D 10 06 FFFFFF81 3C FFFFFF81 44 FFFFFF85 0E 30 04 FFFFFF85 0F FFFFFF85 11 10
   04 3D 4E FFFFFF85 10 10 03 2D FFFFFF85 11 04 0A FFFFFF81 64 FFFFFF84 7F
   FFFFFF84 FFFFFF80 FFFFFF80 FFFFFF82 00 30 08 0A FFFFFF84 3A FFFFFF84 6C FFFFFF81 FFFFFF80 FFFFFF84 40
   FFFFFF85 13 14 04 FFFFFF85 14 FFFFFF85 1C 10 05 19 FFFFFF81 1C FFFFFF85 15 10
   09 19 FFFFFF84 66 FFFFFF82 0B FFFFFF85 16 FFFFFF85 1B 10 06 FFFFFF85 17 FFFFFF85 1A
   FFFFFF81 47 0D 02 FFFFFF85 18 0A 03 FFFFFF85 19 45 01 09 69 6D 6D
   75 74 61 62 6C 65 09 04 FFFFFF81 45 FFFFFF85 18 10 06 FFFFFF85 17
   FFFFFF85 1A FFFFFF81 60 08 08 FFFFFF84 3F FFFFFF85 12 FFFFFFC0 00 FFFFFF81 1E 08 07
   FFFFFF85 1E 00 FFFFFF84 01 FFFFFF85 1F 01 0E 70 61 72 73 65 72 32
   70 61 63 6B 72 61 74 15 04 FFFFFF85 20 FFFFFF85 23 14 04 FFFFFF85
   21 FFFFFF85 24 10 05 3D FFFFFF84 0E FFFFFF85 22 10 03 2D FFFFFF85 23 04
   09 2F FFFFFF85 1D FFFFFF84 FFFFFF80 FFFFFF80 FFFFFFC2 00 30 08 09 FFFFFF83 76 FFFFFF85 1D
   FFFFFF84 FFFFFFC0 00 FFFFFF85 25 10 05 19 FFFFFF85 26 FFFFFF85 28 09 03 FFFFFF85 27
   08 02 08 3C 62 79 6E 61 6D 65 3E 10 04 3D 4E FFFFFF85
   22 08 07 FFFFFF85 2A 00 FFFFFF84 04 FFFFFF85 2B 01 06 72 65 63 61
   6C 6C 14 06 FFFFFF85 2C FFFFFF85 32 FFFFFF85 38 10 05 19 FFFFFF81 1C FFFFFF85
   2D 30 04 FFFFFF85 2E FFFFFF85 30 10 04 3D 58 FFFFFF85 2F 10 03 2D
   FFFFFF85 30 04 0A FFFFFF85 31 FFFFFF85 29 FFFFFF84 FFFFFF80 FFFFFF80 FFFFFF82 00 30 02 04
   5F 24 31 31 08 08 FFFFFF83 76 FFFFFF85 29 FFFFFFC0 00 FFFFFF85 33 30 04
   FFFFFF85 34 FFFFFF85 36 10 04 3D 4E FFFFFF85 35 10 03 2D FFFFFF85 36 04
   0A FFFFFF85 37 FFFFFF85 29 FFFFFF84 FFFFFF80 FFFFFF80 FFFFFF82 00 30 02 04 5F 24 31
   30 08 08 FFFFFF85 39 FFFFFF85 29 FFFFFFC0 00 FFFFFF85 3A 01 02 69 6E 10
   04 3D 22 FFFFFF85 3B 10 03 3D FFFFFF85 3C 09 03 FFFFFF85 3D 16 02
   04 45 6C 65 6D 08 07 FFFFFF85 3F 00 FFFFFF84 04 FFFFFF85 40 01 07
   73 65 74 75 70 4C 52 14 07 1F FFFFFF85 41 FFFFFF85 47 FFFFFF85 4D
   08 08 FFFFFF83 76 FFFFFF85 3E FFFFFFC0 00 FFFFFF85 42 30 04 FFFFFF85 43 FFFFFF85 45
   10 04 3D 4E FFFFFF85 44 10 03 2D FFFFFF85 45 04 0A FFFFFF85 46 FFFFFF85
   3E FFFFFF84 FFFFFF80 FFFFFF80 FFFFFF82 00 30 02 04 5F 24 31 33 08 08 FFFFFF85
   39 FFFFFF85 3E FFFFFFC0 00 FFFFFF85 48 30 04 FFFFFF85 49 FFFFFF85 4B 10 04 3D
   22 FFFFFF85 4A 10 03 2D FFFFFF85 4B 04 0A FFFFFF85 4C FFFFFF85 3E FFFFFF84 FFFFFF80
   FFFFFF80 FFFFFF82 00 30 02 04 5F 24 31 34 08 07 FFFFFF85 4E FFFFFF85 3E
   FFFFFFC0 00 65 01 09 72 65 63 44 65 74 65 63 74 08 07
   FFFFFF85 50 00 FFFFFF84 04 FFFFFF85 51 01 08 6C 72 41 6E 73 77 65
   72 15 04 FFFFFF85 52 FFFFFF85 55 14 08 FFFFFF85 53 FFFFFF85 56 FFFFFF85 58 FFFFFF85
   59 10 04 3D 6E FFFFFF85 54 10 03 2D FFFFFF85 55 04 09 2F FFFFFF85
   4F FFFFFF84 FFFFFF80 FFFFFF80 FFFFFFC2 00 30 08 08 FFFFFF83 76 FFFFFF85 4F FFFFFFC0 00 FFFFFF85
   57 10 04 3D 4E FFFFFF85 54 08 08 FFFFFF85 39 FFFFFF85 4F FFFFFFC0 00 FFFFFF85
   3A 08 07 FFFFFF85 5A FFFFFF85 4F FFFFFFC0 00 65 01 08 67 72 6F 77
   61 62 6C 65 08 07 FFFFFF85 5C 00 FFFFFF84 00 FFFFFF85 5D 01 04 6D
   65 6D 6F 15 04 FFFFFF85 5E FFFFFF85 61 14 04 FFFFFF85 5F FFFFFF85 62 10
   05 3D FFFFFF84 0E FFFFFF85 60 10 03 2D FFFFFF85 61 04 09 2F FFFFFF85 5B
   FFFFFF84 FFFFFF80 FFFFFF80 FFFFFFC2 00 30 08 08 FFFFFF83 76 FFFFFF85 5B FFFFFFC0 00 FFFFFF85 63
   10 04 3D 4E FFFFFF85 60 08 07 FFFFFF85 65 00 FFFFFF84 04 FFFFFF85 66 01
   04 67 72 6F 77 15 04 FFFFFF85 67 FFFFFF85 6A 14 08 FFFFFF85 68 FFFFFF85
   6B FFFFFF85 6D FFFFFF85 6E 10 04 3D 6E FFFFFF85 69 10 03 2D FFFFFF85 6A
   04 09 2F FFFFFF85 64 FFFFFF84 FFFFFF80 FFFFFF80 FFFFFFC2 00 30 08 08 FFFFFF83 76 FFFFFF85
   64 FFFFFFC0 00 FFFFFF85 6C 10 04 3D 4E FFFFFF85 69 08 08 FFFFFF83 59 FFFFFF85
   64 FFFFFFC0 00 FFFFFF85 3A 08 08 FFFFFF81 19 FFFFFF85 64 FFFFFFC0 00 FFFFFF81 1E 08
   0C FFFFFF85 70 00 FFFFFF81 FFFFFF80 FFFFFF80 FFFFFF84 04 FFFFFF85 71 FFFFFF85 77 01 0C 73
   75 70 65 72 24 70 68 72 61 73 65 15 04 FFFFFF85 72 FFFFFF85
   75 14 04 FFFFFF85 73 FFFFFF85 76 10 04 3D 4E FFFFFF85 74 10 03 2D
   FFFFFF85 75 04 09 2F FFFFFF85 6F FFFFFF84 FFFFFF80 FFFFFF80 FFFFFFC2 00 30 08 08 FFFFFF83
   76 FFFFFF85 6F FFFFFFC0 00 FFFFFF85 73 09 03 FFFFFF84 0A 16 08 0C FFFFFF85 79
   00 FFFFFF81 FFFFFF80 FFFFFF80 FFFFFF84 04 FFFFFF85 7A FFFFFF86 08 01 0C 73 75 70 65
   72 24 50 61 72 73 65 72 15 04 FFFFFF85 7B FFFFFF85 7E 14 04
   FFFFFF85 7C FFFFFF85 7F 10 04 3D 4E FFFFFF85 7D 10 03 2D FFFFFF85 7E 04
   09 2F FFFFFF85 78 FFFFFF84 FFFFFF80 FFFFFF80 FFFFFFC2 00 30 08 08 FFFFFF86 00 FFFFFF85 78
   FFFFFFC0 00 FFFFFF86 01 01 01 66 10 07 19 FFFFFF86 02 FFFFFF86 04 FFFFFF86 07
   09 03 FFFFFF86 03 08 02 09 46 75 6E 63 74 69 6F 6E 31
   10 03 3D FFFFFF86 05 09 03 FFFFFF86 06 16 02 05 49 6E 70 75
   74 10 04 3D 6E FFFFFF85 7D 09 03 FFFFFF86 09 16 01 06 50 61
   72 73 65 72 
  InnerClass: 
   public abstract Parser=class scala/util/parsing/combinator/Parsers$Parser of class scala/util/parsing/combinator/Parsers
   public LR=class scala/util/parsing/combinator/PackratParsers$LR of class scala/util/parsing/combinator/PackratParsers
   public Head=class scala/util/parsing/combinator/PackratParsers$Head of class scala/util/parsing/combinator/PackratParsers
   public final $anon$2=class scala/util/parsing/combinator/PackratParsers$$anon$2 of class scala/util/parsing/combinator/PackratParsers
   public final $anon$1=class scala/util/parsing/combinator/PackratParsers$$anon$1 of class scala/util/parsing/combinator/PackratParsers
   public MemoEntry=class scala/util/parsing/combinator/PackratParsers$MemoEntry of class scala/util/parsing/combinator/PackratParsers
   public PackratReader=class scala/util/parsing/combinator/PackratParsers$PackratReader of class scala/util/parsing/combinator/PackratParsers
   public abstract PackratParser=class scala/util/parsing/combinator/PackratParsers$PackratParser of class scala/util/parsing/combinator/PackratParsers
   public final $anonfun$parser2packrat$1=class scala/util/parsing/combinator/PackratParsers$$anonfun$parser2packrat$1 of class scala/util/parsing/combinator/PackratParsers
   public final $anonfun$scala$util$parsing$combinator$PackratParsers$$recall$1=class scala/util/parsing/combinator/PackratParsers$$anonfun$scala$util$parsing$combinator$PackratParsers$$recall$1 of class scala/util/parsing/combinator/PackratParsers
   public final $anonfun$scala$util$parsing$combinator$PackratParsers$$setupLR$2=class scala/util/parsing/combinator/PackratParsers$$anonfun$scala$util$parsing$combinator$PackratParsers$$setupLR$2 of class scala/util/parsing/combinator/PackratParsers
   public final $anonfun$scala$util$parsing$combinator$PackratParsers$$setupLR$1=class scala/util/parsing/combinator/PackratParsers$$anonfun$scala$util$parsing$combinator$PackratParsers$$setupLR$1 of class scala/util/parsing/combinator/PackratParsers
  minor version: 0
  major version: 49
  Constant pool:
Asciz	SourceFile;
Asciz	PackratParsers.scala;
Asciz	scala$util$parsing$combinator$PackratParsers$$super$phrase;
Asciz	(Lscala/util/parsing/combinator/Parsers$Parser;)Lscala/util/parsing/combinator/Parsers$Parser;;
Asciz	scala$util$parsing$combinator$PackratParsers$$super$Parser;
Asciz	(Lscala/Function1;)Lscala/util/parsing/combinator/Parsers$Parser;;
Asciz	phrase;
Asciz	(Lscala/util/parsing/combinator/Parsers$Parser;)Lscala/util/parsing/combinator/PackratParsers$PackratParser;;
Asciz	<T:Ljava/lang/Object;>(Lscala/util/parsing/combinator/Parsers$Parser<TT;>;)Lscala/util/parsing/combinator/PackratParsers$PackratParser<TT;>;;
Asciz	Signature;
Asciz	parser2packrat;
Asciz	(Lscala/Function0;)Lscala/util/parsing/combinator/PackratParsers$PackratParser;;
Asciz	<T:Ljava/lang/Object;>(Lscala/Function0<Lscala/util/parsing/combinator/Parsers$Parser<TT;>;>;)Lscala/util/parsing/combinator/PackratParsers$PackratParser<TT;>;;
Asciz	memo;
Asciz	scala$util$parsing$combinator$PackratParsers$$Head;
Asciz	()Lscala/util/parsing/combinator/PackratParsers$Head$;;
Asciz	scala$util$parsing$combinator$PackratParsers$$LR;
Asciz	()Lscala/util/parsing/combinator/PackratParsers$LR$;;
Asciz	scala$util$parsing$combinator$PackratParsers$$MemoEntry;
Asciz	()Lscala/util/parsing/combinator/PackratParsers$MemoEntry$;;
Asciz	ScalaSig;
Asciz	InnerClasses;
Asciz	scala/util/parsing/combinator/Parsers$Parser;
class	scala/util/parsing/combinator/Parsers$Parser
Asciz	scala/util/parsing/combinator/Parsers;
class	scala/util/parsing/combinator/Parsers
Asciz	Parser;
Asciz	scala/util/parsing/combinator/PackratParsers$LR;
class	scala/util/parsing/combinator/PackratParsers$LR
Asciz	scala/util/parsing/combinator/PackratParsers;
class	scala/util/parsing/combinator/PackratParsers
Asciz	LR;
Asciz	scala/util/parsing/combinator/PackratParsers$Head;
class	scala/util/parsing/combinator/PackratParsers$Head
Asciz	Head;
Asciz	scala/util/parsing/combinator/PackratParsers$$anon$2;
class	scala/util/parsing/combinator/PackratParsers$$anon$2
Asciz	$anon$2;
Asciz	scala/util/parsing/combinator/PackratParsers$$anon$1;
class	scala/util/parsing/combinator/PackratParsers$$anon$1
Asciz	$anon$1;
Asciz	scala/util/parsing/combinator/PackratParsers$MemoEntry;
class	scala/util/parsing/combinator/PackratParsers$MemoEntry
Asciz	MemoEntry;
Asciz	scala/util/parsing/combinator/PackratParsers$PackratReader;
class	scala/util/parsing/combinator/PackratParsers$PackratReader
Asciz	PackratReader;
Asciz	scala/util/parsing/combinator/PackratParsers$PackratParser;
class	scala/util/parsing/combinator/PackratParsers$PackratParser
Asciz	PackratParser;
Asciz	scala/util/parsing/combinator/PackratParsers$$anonfun$parser2packrat$1;
class	scala/util/parsing/combinator/PackratParsers$$anonfun$parser2packrat$1
Asciz	$anonfun$parser2packrat$1;
Asciz	scala/util/parsing/combinator/PackratParsers$$anonfun$scala$util$parsing$combinator$PackratParsers$$recall$1;
class	scala/util/parsing/combinator/PackratParsers$$anonfun$scala$util$parsing$combinator$PackratParsers$$recall$1
Asciz	$anonfun$scala$util$parsing$combinator$PackratParsers$$recall$1;
Asciz	scala/util/parsing/combinator/PackratParsers$$anonfun$scala$util$parsing$combinator$PackratParsers$$setupLR$2;
class	scala/util/parsing/combinator/PackratParsers$$anonfun$scala$util$parsing$combinator$PackratParsers$$setupLR$2
Asciz	$anonfun$scala$util$parsing$combinator$PackratParsers$$setupLR$2;
Asciz	scala/util/parsing/combinator/PackratParsers$$anonfun$scala$util$parsing$combinator$PackratParsers$$setupLR$1;
class	scala/util/parsing/combinator/PackratParsers$$anonfun$scala$util$parsing$combinator$PackratParsers$$setupLR$1
Asciz	$anonfun$scala$util$parsing$combinator$PackratParsers$$setupLR$1;
Asciz	java/lang/Object;
class	java/lang/Object
Asciz	scala/ScalaObject;
class	scala/ScalaObject

{
public abstract scala.util.parsing.combinator.Parsers$Parser scala$util$parsing$combinator$PackratParsers$$super$phrase(scala.util.parsing.combinator.Parsers$Parser);
  Signature: (Lscala/util/parsing/combinator/Parsers$Parser;)Lscala/util/parsing/combinator/Parsers$Parser;

public abstract scala.util.parsing.combinator.Parsers$Parser scala$util$parsing$combinator$PackratParsers$$super$Parser(scala.Function1);
  Signature: (Lscala/Function1;)Lscala/util/parsing/combinator/Parsers$Parser;

public abstract scala.util.parsing.combinator.PackratParsers$PackratParser phrase(scala.util.parsing.combinator.Parsers$Parser);
  Signature: (Lscala/util/parsing/combinator/Parsers$Parser;)Lscala/util/parsing/combinator/PackratParsers$PackratParser;
  Signature: length = 0x2
   00 09 

public abstract scala.util.parsing.combinator.PackratParsers$PackratParser parser2packrat(scala.Function0);
  Signature: (Lscala/Function0;)Lscala/util/parsing/combinator/PackratParsers$PackratParser;
  Signature: length = 0x2
   00 0D 

public abstract scala.util.parsing.combinator.PackratParsers$PackratParser memo(scala.util.parsing.combinator.Parsers$Parser);
  Signature: (Lscala/util/parsing/combinator/Parsers$Parser;)Lscala/util/parsing/combinator/PackratParsers$PackratParser;
  Signature: length = 0x2
   00 09 

public abstract scala.util.parsing.combinator.PackratParsers$Head$ scala$util$parsing$combinator$PackratParsers$$Head();
  Signature: ()Lscala/util/parsing/combinator/PackratParsers$Head$;

public abstract scala.util.parsing.combinator.PackratParsers$LR$ scala$util$parsing$combinator$PackratParsers$$LR();
  Signature: ()Lscala/util/parsing/combinator/PackratParsers$LR$;

public abstract scala.util.parsing.combinator.PackratParsers$MemoEntry$ scala$util$parsing$combinator$PackratParsers$$MemoEntry();
  Signature: ()Lscala/util/parsing/combinator/PackratParsers$MemoEntry$;

}

