Compiled from "Transformed.scala"
public interface scala.collection.views.IterableTransformations extends scala.collection.views.TraversableTransformations,scala.ScalaObject
  SourceFile: "Transformed.scala"
  Signature: length = 0x2
   00 19 
  ScalaSig: length = 0x459
   05 00 FFFFFF81 1F 06 09 01 02 FFFFFF90 FFFFFF80 FFFFFF81 00 04 08 31 02
   17 49 74 65 72 61 62 6C 65 54 72 61 6E 73 66 6F
   72 6D 61 74 69 6F 6E 73 0A 02 03 04 01 05 76 69
   65 77 73 0A 02 05 06 01 0A 63 6F 6C 6C 65 63 74
   69 6F 6E 0A 01 07 01 05 73 63 61 6C 61 15 04 09
   18 24 27 13 04 00 0A 12 34 10 02 0B 10 0D 01 0C
   0A 02 0D 0E 01 04 6C 61 6E 67 0A 01 0F 01 04 6A
   61 76 61 09 02 11 0C 02 06 4F 62 6A 65 63 74 10
   05 13 14 16 23 26 0D 01 02 09 02 15 02 02 1A 54
   72 61 76 65 72 73 61 62 6C 65 54 72 61 6E 73 66
   6F 72 6D 61 74 69 6F 6E 73 10 02 17 18 0C 00 04
   08 19 00 FFFFFF84 FFFFFF80 FFFFFF84 FFFFFFC2 00 1B 02 01 41 03 00 11 02
   1C 20 10 02 1D 1E 0D 01 06 09 02 1F 06 02 07 4E
   6F 74 68 69 6E 67 10 02 1D 21 09 02 22 06 02 03
   41 6E 79 10 02 17 24 04 08 25 00 FFFFFF84 FFFFFF80 FFFFFF84 FFFFFFC2 00
   1B 02 04 43 6F 6C 6C 10 02 17 27 04 08 28 00 FFFFFF84
   FFFFFF80 FFFFFF84 FFFFFFC2 00 29 02 04 54 68 69 73 11 02 1C 2A 12
   03 2B 2D 31 06 08 2C 00 FFFFFF84 FFFFFF80 FFFFFF80 FFFFFF80 00 2A 02 0C
   3C 72 65 66 69 6E 65 6D 65 6E 74 3E 10 04 2E 2F
   16 23 0D 01 04 09 02 30 04 02 0C 49 74 65 72 61
   62 6C 65 56 69 65 77 10 05 2E 32 16 23 26 09 02
   33 04 02 10 49 74 65 72 61 62 6C 65 56 69 65 77
   4C 69 6B 65 10 02 1D 35 09 02 36 06 02 0B 53 63
   61 6C 61 4F 62 6A 65 63 74 08 05 38 00 FFFFFF84 00 39
   01 06 24 69 6E 69 74 24 14 01 3A 10 02 1D 3B 09
   02 3C 06 02 04 55 6E 69 74 08 05 3E 00 FFFFFF84 28 3F
   01 0B 6E 65 77 41 70 70 65 6E 64 65 64 15 02 40
   46 14 02 41 49 10 03 42 43 45 0D 01 00 09 02 44
   32 02 0B 54 72 61 6E 73 66 6F 72 6D 65 64 10 02
   17 46 04 08 47 3D FFFFFF84 FFFFFF80 FFFFFF80 FFFFFFC2 00 48 02 01 42 11
   02 16 20 08 05 4A 3D FFFFFFC0 00 4B 01 04 74 68 61 74
   10 03 2E 4C 45 09 02 4D 04 02 0B 54 72 61 76 65
   72 73 61 62 6C 65 08 05 4F 00 FFFFFF84 28 50 01 09 6E
   65 77 4D 61 70 70 65 64 15 02 51 54 14 02 52 55
   10 03 42 43 53 10 02 17 54 04 08 47 4E FFFFFF84 FFFFFF80 FFFFFF80
   FFFFFFC2 00 1B 08 05 56 4E FFFFFFC0 00 57 01 01 66 10 04 1D
   58 16 53 09 02 59 06 02 09 46 75 6E 63 74 69 6F
   6E 31 08 05 5B 00 FFFFFF84 28 5C 01 0D 6E 65 77 46 6C
   61 74 4D 61 70 70 65 64 15 02 5D 60 14 02 5E 61
   10 03 42 43 5F 10 02 17 60 04 08 47 5A FFFFFF84 FFFFFF80 FFFFFF80
   FFFFFFC2 00 1B 08 05 56 5A FFFFFFC0 00 62 10 04 1D 58 16 63
   10 03 2E 4C 5F 08 05 65 00 FFFFFF84 28 66 01 0B 6E 65
   77 46 69 6C 74 65 72 65 64 14 02 67 68 10 03 42
   43 16 08 05 69 64 FFFFFFC0 00 6A 01 01 70 10 04 1D 58
   16 6B 10 02 1D 6C 09 02 6D 06 02 07 42 6F 6F 6C
   65 61 6E 08 05 6F 00 FFFFFF84 28 70 01 09 6E 65 77 53
   6C 69 63 65 64 14 03 67 71 76 08 05 72 6E FFFFFFC0 00
   73 01 05 5F 66 72 6F 6D 10 02 1D 74 09 02 75 06
   02 03 49 6E 74 08 05 77 6E FFFFFFC0 00 73 01 06 5F 75
   6E 74 69 6C 08 05 79 00 FFFFFF84 28 7A 01 0F 6E 65 77
   44 72 6F 70 70 65 64 57 68 69 6C 65 14 02 67 7B
   08 05 69 78 FFFFFFC0 00 6A 08 05 7D 00 FFFFFF84 28 7E 01 0D
   6E 65 77 54 61 6B 65 6E 57 68 69 6C 65 14 02 67
   7F 08 05 69 7C FFFFFFC0 00 6A 08 07 FFFFFF81 01 00 FFFFFF84 08 FFFFFF81
   02 01 09 6E 65 77 5A 69 70 70 65 64 15 04 FFFFFF81 03
   FFFFFF81 09 14 04 FFFFFF81 04 FFFFFF81 0A 10 04 42 43 FFFFFF81 05 10 06
   1D FFFFFF81 06 16 FFFFFF81 08 09 03 FFFFFF81 07 06 02 06 54 75 70
   6C 65 32 10 03 17 FFFFFF81 09 04 09 47 FFFFFF81 00 FFFFFF84 FFFFFF80 FFFFFF80
   FFFFFFC2 00 1B 08 07 4A FFFFFF81 00 FFFFFFC0 00 FFFFFF81 0B 10 05 2E FFFFFF81
   0C FFFFFF81 08 09 03 FFFFFF81 0D 04 02 08 49 74 65 72 61 62
   6C 65 08 07 FFFFFF81 0F 00 FFFFFF84 08 FFFFFF81 10 01 0C 6E 65 77
   5A 69 70 70 65 64 41 6C 6C 15 06 FFFFFF81 11 FFFFFF81 15 FFFFFF81
   18 14 08 FFFFFF81 12 FFFFFF81 19 FFFFFF81 1B FFFFFF81 1D 10 04 42 43 FFFFFF81
   13 10 07 1D FFFFFF81 06 FFFFFF81 14 FFFFFF81 17 10 03 17 FFFFFF81 15 04
   0A FFFFFF81 16 FFFFFF81 0E FFFFFF84 FFFFFF80 FFFFFF80 FFFFFFC2 00 48 02 02 41 31 10
   03 17 FFFFFF81 18 04 09 47 FFFFFF81 0E FFFFFF84 FFFFFF80 FFFFFF80 FFFFFFC2 00 1B 08
   07 4A FFFFFF81 0E FFFFFFC0 00 FFFFFF81 1A 10 05 2E FFFFFF81 0C FFFFFF81 17 08
   08 FFFFFF81 1C FFFFFF81 0E FFFFFFC0 00 FFFFFF81 14 01 09 5F 74 68 69 73
   45 6C 65 6D 08 08 FFFFFF81 1E FFFFFF81 0E FFFFFFC0 00 FFFFFF81 17 01 09
   5F 74 68 61 74 45 6C 65 6D 
  InnerClass: 
   public abstract Transformed=class scala/collection/IterableViewLike$Transformed of class scala/collection/IterableViewLike
   public final $anon$31=class scala/collection/views/IterableTransformations$$anon$31 of class scala/collection/views/IterableTransformations
   public final $anon$30=class scala/collection/views/IterableTransformations$$anon$30 of class scala/collection/views/IterableTransformations
   public final $anon$29=class scala/collection/views/IterableTransformations$$anon$29 of class scala/collection/views/IterableTransformations
   public final $anon$28=class scala/collection/views/IterableTransformations$$anon$28 of class scala/collection/views/IterableTransformations
   public final $anon$27=class scala/collection/views/IterableTransformations$$anon$27 of class scala/collection/views/IterableTransformations
   public final $anon$26=class scala/collection/views/IterableTransformations$$anon$26 of class scala/collection/views/IterableTransformations
   public final $anon$25=class scala/collection/views/IterableTransformations$$anon$25 of class scala/collection/views/IterableTransformations
   public final $anon$24=class scala/collection/views/IterableTransformations$$anon$24 of class scala/collection/views/IterableTransformations
   public final $anon$23=class scala/collection/views/IterableTransformations$$anon$23 of class scala/collection/views/IterableTransformations
  minor version: 0
  major version: 49
  Constant pool:
Asciz	SourceFile;
Asciz	Transformed.scala;
Asciz	newZippedAll;
Asciz	(Lscala/collection/Iterable;Ljava/lang/Object;Ljava/lang/Object;)Lscala/collection/IterableViewLike$Transformed;;
Asciz	<A1:Ljava/lang/Object;B:Ljava/lang/Object;>(Lscala/collection/Iterable<TB;>;TA1;TB;)Lscala/collection/IterableViewLike<TA;TColl;TThis;>.Transformed<Lscala/Tuple2<TA1;TB;>;>;;
Asciz	Signature;
Asciz	newZipped;
Asciz	(Lscala/collection/Iterable;)Lscala/collection/IterableViewLike$Transformed;;
Asciz	<B:Ljava/lang/Object;>(Lscala/collection/Iterable<TB;>;)Lscala/collection/IterableViewLike<TA;TColl;TThis;>.Transformed<Lscala/Tuple2<TA;TB;>;>;;
Asciz	newTakenWhile;
Asciz	(Lscala/Function1;)Lscala/collection/IterableViewLike$Transformed;;
Asciz	(Lscala/Function1<TA;Ljava/lang/Boolean;>;)Lscala/collection/IterableViewLike<TA;TColl;TThis;>.Transformed<TA;>;;
Asciz	newDroppedWhile;
Asciz	newSliced;
Asciz	(II)Lscala/collection/IterableViewLike$Transformed;;
Asciz	(II)Lscala/collection/IterableViewLike<TA;TColl;TThis;>.Transformed<TA;>;;
Asciz	newFiltered;
Asciz	newFlatMapped;
Asciz	<B:Ljava/lang/Object;>(Lscala/Function1<TA;Lscala/collection/Traversable<TB;>;>;)Lscala/collection/IterableViewLike<TA;TColl;TThis;>.Transformed<TB;>;;
Asciz	newMapped;
Asciz	<B:Ljava/lang/Object;>(Lscala/Function1<TA;TB;>;)Lscala/collection/IterableViewLike<TA;TColl;TThis;>.Transformed<TB;>;;
Asciz	newAppended;
Asciz	(Lscala/collection/Traversable;)Lscala/collection/IterableViewLike$Transformed;;
Asciz	<B:Ljava/lang/Object;>(Lscala/collection/Traversable<TB;>;)Lscala/collection/IterableViewLike<TA;TColl;TThis;>.Transformed<TB;>;;
Asciz	<A:Ljava/lang/Object;Coll:Ljava/lang/Object;This::Lscala/collection/IterableView<TA;TColl;>;:Lscala/collection/IterableViewLike<TA;TColl;TThis;>;>Ljava/lang/Object;Lscala/collection/views/TraversableTransformations<TA;TColl;TThis;>;Lscala/ScalaObject;;
Asciz	ScalaSig;
Asciz	InnerClasses;
Asciz	scala/collection/IterableViewLike$Transformed;
class	scala/collection/IterableViewLike$Transformed
Asciz	scala/collection/IterableViewLike;
class	scala/collection/IterableViewLike
Asciz	Transformed;
Asciz	scala/collection/views/IterableTransformations$$anon$31;
class	scala/collection/views/IterableTransformations$$anon$31
Asciz	scala/collection/views/IterableTransformations;
class	scala/collection/views/IterableTransformations
Asciz	$anon$31;
Asciz	scala/collection/views/IterableTransformations$$anon$30;
class	scala/collection/views/IterableTransformations$$anon$30
Asciz	$anon$30;
Asciz	scala/collection/views/IterableTransformations$$anon$29;
class	scala/collection/views/IterableTransformations$$anon$29
Asciz	$anon$29;
Asciz	scala/collection/views/IterableTransformations$$anon$28;
class	scala/collection/views/IterableTransformations$$anon$28
Asciz	$anon$28;
Asciz	scala/collection/views/IterableTransformations$$anon$27;
class	scala/collection/views/IterableTransformations$$anon$27
Asciz	$anon$27;
Asciz	scala/collection/views/IterableTransformations$$anon$26;
class	scala/collection/views/IterableTransformations$$anon$26
Asciz	$anon$26;
Asciz	scala/collection/views/IterableTransformations$$anon$25;
class	scala/collection/views/IterableTransformations$$anon$25
Asciz	$anon$25;
Asciz	scala/collection/views/IterableTransformations$$anon$24;
class	scala/collection/views/IterableTransformations$$anon$24
Asciz	$anon$24;
Asciz	scala/collection/views/IterableTransformations$$anon$23;
class	scala/collection/views/IterableTransformations$$anon$23
Asciz	$anon$23;
Asciz	java/lang/Object;
class	java/lang/Object
Asciz	scala/collection/views/TraversableTransformations;
class	scala/collection/views/TraversableTransformations
Asciz	scala/ScalaObject;
class	scala/ScalaObject

{
public abstract scala.collection.IterableViewLike$Transformed newZippedAll(scala.collection.Iterable, java.lang.Object, java.lang.Object);
  Signature: (Lscala/collection/Iterable;Ljava/lang/Object;Ljava/lang/Object;)Lscala/collection/IterableViewLike$Transformed;
  Signature: length = 0x2
   00 05 

public abstract scala.collection.IterableViewLike$Transformed newZipped(scala.collection.Iterable);
  Signature: (Lscala/collection/Iterable;)Lscala/collection/IterableViewLike$Transformed;
  Signature: length = 0x2
   00 09 

public abstract scala.collection.IterableViewLike$Transformed newTakenWhile(scala.Function1);
  Signature: (Lscala/Function1;)Lscala/collection/IterableViewLike$Transformed;
  Signature: length = 0x2
   00 0C 

public abstract scala.collection.IterableViewLike$Transformed newDroppedWhile(scala.Function1);
  Signature: (Lscala/Function1;)Lscala/collection/IterableViewLike$Transformed;
  Signature: length = 0x2
   00 0C 

public abstract scala.collection.IterableViewLike$Transformed newSliced(int, int);
  Signature: (II)Lscala/collection/IterableViewLike$Transformed;
  Signature: length = 0x2
   00 10 

public abstract scala.collection.IterableViewLike$Transformed newFiltered(scala.Function1);
  Signature: (Lscala/Function1;)Lscala/collection/IterableViewLike$Transformed;
  Signature: length = 0x2
   00 0C 

public abstract scala.collection.IterableViewLike$Transformed newFlatMapped(scala.Function1);
  Signature: (Lscala/Function1;)Lscala/collection/IterableViewLike$Transformed;
  Signature: length = 0x2
   00 13 

public abstract scala.collection.IterableViewLike$Transformed newMapped(scala.Function1);
  Signature: (Lscala/Function1;)Lscala/collection/IterableViewLike$Transformed;
  Signature: length = 0x2
   00 15 

public abstract scala.collection.IterableViewLike$Transformed newAppended(scala.collection.Traversable);
  Signature: (Lscala/collection/Traversable;)Lscala/collection/IterableViewLike$Transformed;
  Signature: length = 0x2
   00 18 

}

