Compiled from "DelayedLazyVal.scala"
public class scala.concurrent.DelayedLazyVal extends java.lang.Object implements scala.ScalaObject
  SourceFile: "DelayedLazyVal.scala"
  Signature: length = 0x2
   00 50 
  ScalaSig: length = 0x1A1
   05 00 45 06 04 01 02 00 07 02 0E 44 65 6C 61 79
   65 64 4C 61 7A 79 56 61 6C 0A 02 03 04 01 0A 63
   6F 6E 63 75 72 72 65 6E 74 0A 01 05 01 05 73 63
   61 6C 61 03 00 15 02 08 1C 13 03 00 09 11 10 02
   0A 0F 0D 01 0B 0A 02 0C 0D 01 04 6C 61 6E 67 0A
   01 0E 01 04 6A 61 76 61 09 02 10 0B 02 06 4F 62
   6A 65 63 74 10 02 12 13 0D 01 04 09 02 14 04 02
   0B 53 63 61 6C 61 4F 62 6A 65 63 74 08 08 16 00
   FFFFFF82 FFFFFF80 FFFFFFA0 FFFFFF80 04 17 01 01 66 10 03 12 18 1A 09 02
   19 04 02 09 46 75 6E 63 74 69 6F 6E 30 10 02 1B
   1C 0C 00 04 08 1D 00 FFFFFF84 FFFFFF80 FFFFFF80 FFFFFFC2 00 1E 02 01 54
   11 02 1F 22 10 02 12 20 09 02 21 04 02 07 4E 6F
   74 68 69 6E 67 10 02 12 23 09 02 24 04 02 03 41
   6E 79 08 08 26 00 FFFFFF82 FFFFFF80 FFFFFFA4 FFFFFF80 04 27 01 04 62 6F
   64 79 10 03 12 28 2A 09 02 29 04 02 08 3C 62 79
   6E 61 6D 65 3E 10 02 12 2B 09 02 2C 04 02 04 55
   6E 69 74 08 05 2E 00 FFFFFF84 00 2F 01 06 3C 69 6E 69
   74 3E 14 03 30 32 33 10 03 31 00 1A 0D 01 02 08
   05 16 2D FFFFFFC0 00 17 08 05 26 2D FFFFFFC0 00 27 08 06 35
   00 FFFFFFA0 FFFFFFA0 04 36 01 06 69 73 44 6F 6E 65 10 02 12
   37 09 02 38 04 02 07 42 6F 6F 6C 65 61 6E 28 02
   34 3A 10 02 12 3B 09 02 3C 04 02 08 76 6F 6C 61
   74 69 6C 65 08 08 3E 00 FFFFFF88 FFFFFFC2 FFFFFFA0 FFFFFF84 04 3F 01 08
   63 6F 6D 70 6C 65 74 65 15 01 1A 08 08 41 00 FFFFFF88
   FFFFFF80 FFFFFF80 FFFFFFA0 04 1A 01 09 63 6F 6D 70 6C 65 74 65 20
   08 05 43 00 FFFFFF84 00 44 01 05 61 70 70 6C 79 14 01
   1A 
  InnerClass: 
   public final #83= #53 of #20; //$anonfun$3=class scala/concurrent/DelayedLazyVal$$anonfun$3 of class scala/concurrent/DelayedLazyVal
   public final #84= #44 of #20; //$anonfun$2=class scala/concurrent/DelayedLazyVal$$anonfun$2 of class scala/concurrent/DelayedLazyVal
   public final #85= #33 of #20; //$anonfun$1=class scala/concurrent/DelayedLazyVal$$anonfun$1 of class scala/concurrent/DelayedLazyVal
  minor version: 0
  major version: 49
  Constant pool:
const #1 = Asciz	SourceFile;
const #2 = Asciz	DelayedLazyVal.scala;
const #3 = Asciz	bitmap$0;
const #4 = Asciz	I;
const #5 = Asciz	complete;
const #6 = Asciz	Ljava/lang/Object;;
const #7 = Asciz	TT;;
const #8 = Asciz	Signature;
const #9 = Asciz	scala$concurrent$DelayedLazyVal$$isDone;
const #10 = Asciz	Z;
const #11 = Asciz	scala$concurrent$DelayedLazyVal$$body;
const #12 = Asciz	Lscala/Function0;;
const #13 = Asciz	f;
const #14 = Asciz	Lscala/Function0<TT;>;;
const #15 = Asciz	<init>;
const #16 = Asciz	(Lscala/Function0;Lscala/Function0;)V;
const #17 = Asciz	Code;
const #18 = Asciz	LineNumberTable;
const #19 = Asciz	scala/concurrent/DelayedLazyVal;
const #20 = class	#19;	//  scala/concurrent/DelayedLazyVal
const #21 = NameAndType	#13:#12;//  f:Lscala/Function0;
const #22 = Field	#20.#21;	//  scala/concurrent/DelayedLazyVal.f:Lscala/Function0;
const #23 = NameAndType	#11:#12;//  scala$concurrent$DelayedLazyVal$$body:Lscala/Function0;
const #24 = Field	#20.#23;	//  scala/concurrent/DelayedLazyVal.scala$concurrent$DelayedLazyVal$$body:Lscala/Function0;
const #25 = Asciz	java/lang/Object;
const #26 = class	#25;	//  java/lang/Object
const #27 = Asciz	()V;
const #28 = NameAndType	#15:#27;//  "<init>":()V
const #29 = Method	#26.#28;	//  java/lang/Object."<init>":()V
const #30 = NameAndType	#9:#10;//  scala$concurrent$DelayedLazyVal$$isDone:Z
const #31 = Field	#20.#30;	//  scala/concurrent/DelayedLazyVal.scala$concurrent$DelayedLazyVal$$isDone:Z
const #32 = Asciz	scala/concurrent/DelayedLazyVal$$anonfun$1;
const #33 = class	#32;	//  scala/concurrent/DelayedLazyVal$$anonfun$1
const #34 = Asciz	(Lscala/concurrent/DelayedLazyVal;)V;
const #35 = NameAndType	#15:#34;//  "<init>":(Lscala/concurrent/DelayedLazyVal;)V
const #36 = Method	#33.#35;	//  scala/concurrent/DelayedLazyVal$$anonfun$1."<init>":(Lscala/concurrent/DelayedLazyVal;)V
const #37 = Asciz	scala/concurrent/ops$;
const #38 = class	#37;	//  scala/concurrent/ops$
const #39 = Asciz	MODULE$;
const #40 = Asciz	Lscala/concurrent/ops$;;
const #41 = NameAndType	#39:#40;//  MODULE$:Lscala/concurrent/ops$;
const #42 = Field	#38.#41;	//  scala/concurrent/ops$.MODULE$:Lscala/concurrent/ops$;
const #43 = Asciz	scala/concurrent/DelayedLazyVal$$anonfun$2;
const #44 = class	#43;	//  scala/concurrent/DelayedLazyVal$$anonfun$2
const #45 = Asciz	(Lscala/concurrent/DelayedLazyVal;Lscala/Function0;)V;
const #46 = NameAndType	#15:#45;//  "<init>":(Lscala/concurrent/DelayedLazyVal;Lscala/Function0;)V
const #47 = Method	#44.#46;	//  scala/concurrent/DelayedLazyVal$$anonfun$2."<init>":(Lscala/concurrent/DelayedLazyVal;Lscala/Function0;)V
const #48 = Asciz	future$default$2;
const #49 = Asciz	(Lscala/Function0;)Lscala/concurrent/FutureTaskRunner;;
const #50 = NameAndType	#48:#49;//  future$default$2:(Lscala/Function0;)Lscala/concurrent/FutureTaskRunner;
const #51 = Method	#38.#50;	//  scala/concurrent/ops$.future$default$2:(Lscala/Function0;)Lscala/concurrent/FutureTaskRunner;
const #52 = Asciz	scala/concurrent/DelayedLazyVal$$anonfun$3;
const #53 = class	#52;	//  scala/concurrent/DelayedLazyVal$$anonfun$3
const #54 = Method	#53.#46;	//  scala/concurrent/DelayedLazyVal$$anonfun$3."<init>":(Lscala/concurrent/DelayedLazyVal;Lscala/Function0;)V
const #55 = Asciz	future;
const #56 = Asciz	(Lscala/Function0;Lscala/concurrent/FutureTaskRunner;)Lscala/Function0;;
const #57 = NameAndType	#55:#56;//  future:(Lscala/Function0;Lscala/concurrent/FutureTaskRunner;)Lscala/Function0;
const #58 = Method	#38.#57;	//  scala/concurrent/ops$.future:(Lscala/Function0;Lscala/concurrent/FutureTaskRunner;)Lscala/Function0;
const #59 = Asciz	this;
const #60 = Asciz	Lscala/concurrent/DelayedLazyVal;;
const #61 = Asciz	body;
const #62 = Asciz	x$1$1;
const #63 = Asciz	x$2;
const #64 = Asciz	Lscala/concurrent/FutureTaskRunner;;
const #65 = Asciz	LocalVariableTable;
const #66 = Asciz	(Lscala/Function0<TT;>;Lscala/Function0<Ljava/lang/Object;>;)V;
const #67 = Asciz	apply;
const #68 = Asciz	()Ljava/lang/Object;;
const #69 = NameAndType	#5:#68;//  complete:()Ljava/lang/Object;
const #70 = Method	#20.#69;	//  scala/concurrent/DelayedLazyVal.complete:()Ljava/lang/Object;
const #71 = Asciz	scala/Function0;
const #72 = class	#71;	//  scala/Function0
const #73 = NameAndType	#67:#68;//  apply:()Ljava/lang/Object;
const #74 = InterfaceMethod	#72.#73;	//  scala/Function0.apply:()Ljava/lang/Object;
const #75 = Asciz	()TT;;
const #76 = NameAndType	#3:#4;//  bitmap$0:I
const #77 = Field	#20.#76;	//  scala/concurrent/DelayedLazyVal.bitmap$0:I
const #78 = NameAndType	#5:#6;//  complete:Ljava/lang/Object;
const #79 = Field	#20.#78;	//  scala/concurrent/DelayedLazyVal.complete:Ljava/lang/Object;
const #80 = Asciz	<T:Ljava/lang/Object;>Ljava/lang/Object;Lscala/ScalaObject;;
const #81 = Asciz	ScalaSig;
const #82 = Asciz	InnerClasses;
const #83 = Asciz	$anonfun$3;
const #84 = Asciz	$anonfun$2;
const #85 = Asciz	$anonfun$1;
const #86 = Asciz	scala/ScalaObject;
const #87 = class	#86;	//  scala/ScalaObject

{
public volatile int bitmap$0;

public volatile boolean scala$concurrent$DelayedLazyVal$$isDone;

public final scala.Function0 scala$concurrent$DelayedLazyVal$$body;

public scala.concurrent.DelayedLazyVal(scala.Function0, scala.Function0);
  Code:
   Stack=5, Locals=5, Args_size=3
   0:	aload_0
   1:	aload_1
   2:	putfield	#22; //Field f:Lscala/Function0;
   5:	aload_0
   6:	aload_2
   7:	putfield	#24; //Field scala$concurrent$DelayedLazyVal$$body:Lscala/Function0;
   10:	aload_0
   11:	invokespecial	#29; //Method java/lang/Object."<init>":()V
   14:	aload_0
   15:	iconst_0
   16:	putfield	#31; //Field scala$concurrent$DelayedLazyVal$$isDone:Z
   19:	new	#33; //class scala/concurrent/DelayedLazyVal$$anonfun$1
   22:	dup
   23:	aload_0
   24:	invokespecial	#36; //Method scala/concurrent/DelayedLazyVal$$anonfun$1."<init>":(Lscala/concurrent/DelayedLazyVal;)V
   27:	astore_3
   28:	getstatic	#42; //Field scala/concurrent/ops$.MODULE$:Lscala/concurrent/ops$;
   31:	new	#44; //class scala/concurrent/DelayedLazyVal$$anonfun$2
   34:	dup
   35:	aload_0
   36:	aload_3
   37:	invokespecial	#47; //Method scala/concurrent/DelayedLazyVal$$anonfun$2."<init>":(Lscala/concurrent/DelayedLazyVal;Lscala/Function0;)V
   40:	invokevirtual	#51; //Method scala/concurrent/ops$.future$default$2:(Lscala/Function0;)Lscala/concurrent/FutureTaskRunner;
   43:	astore	4
   45:	getstatic	#42; //Field scala/concurrent/ops$.MODULE$:Lscala/concurrent/ops$;
   48:	new	#53; //class scala/concurrent/DelayedLazyVal$$anonfun$3
   51:	dup
   52:	aload_0
   53:	aload_3
   54:	invokespecial	#54; //Method scala/concurrent/DelayedLazyVal$$anonfun$3."<init>":(Lscala/concurrent/DelayedLazyVal;Lscala/Function0;)V
   57:	aload	4
   59:	invokevirtual	#58; //Method scala/concurrent/ops$.future:(Lscala/Function0;Lscala/concurrent/FutureTaskRunner;)Lscala/Function0;
   62:	pop
   63:	return
  LineNumberTable: 
   line 29: 0
   line 30: 14
   line 39: 19

  LocalVariableTable: 
   Start  Length  Slot  Name   Signature
   0      64      0    this       Lscala/concurrent/DelayedLazyVal;
   0      64      1    f       Lscala/Function0;
   0      64      2    body       Lscala/Function0;
   28      35      3    x$1$1       Lscala/Function0;
   45      18      4    x$2       Lscala/concurrent/FutureTaskRunner;

  Signature: length = 0x2
   00 42 

public java.lang.Object apply();
  Code:
   Stack=1, Locals=1, Args_size=1
   0:	aload_0
   1:	getfield	#31; //Field scala$concurrent$DelayedLazyVal$$isDone:Z
   4:	ifeq	14
   7:	aload_0
   8:	invokespecial	#70; //Method complete:()Ljava/lang/Object;
   11:	goto	23
   14:	aload_0
   15:	getfield	#22; //Field f:Lscala/Function0;
   18:	invokeinterface	#74,  1; //InterfaceMethod scala/Function0.apply:()Ljava/lang/Object;
   23:	areturn
  LineNumberTable: 
   line 37: 0

  Signature: length = 0x2
   00 4B 

}

