Compiled from "DelayedLazyVal.scala"
public class scala.concurrent.DelayedLazyVal extends java.lang.Object implements scala.ScalaObject
  SourceFile: "DelayedLazyVal.scala"
  Signature: length = 0x2
   00 5A 
  ScalaSig: length = 0x1B5
   05 00 48 06 04 01 02 00 07 02 0E 44 65 6C 61 79
   65 64 4C 61 7A 79 56 61 6C 0A 02 03 04 01 0A 63
   6F 6E 63 75 72 72 65 6E 74 0A 01 05 01 05 73 63
   61 6C 61 03 00 15 02 08 1C 13 03 00 09 11 10 02
   0A 0F 0D 01 0B 0A 02 0C 0D 01 04 6C 61 6E 67 0A
   01 0E 01 04 6A 61 76 61 09 02 10 0B 02 06 4F 62
   6A 65 63 74 10 02 12 13 0D 01 04 09 02 14 04 02
   0B 53 63 61 6C 61 4F 62 6A 65 63 74 08 08 16 00
   FFFFFF82 FFFFFF80 FFFFFFA0 FFFFFF80 04 17 01 01 66 10 03 12 18 1A 09 02
   19 04 02 09 46 75 6E 63 74 69 6F 6E 30 10 02 1B
   1C 0C 00 04 08 1D 00 FFFFFF84 FFFFFF80 FFFFFF80 FFFFFFC2 00 1E 02 01 54
   11 02 1F 22 10 02 12 20 09 02 21 04 02 07 4E 6F
   74 68 69 6E 67 10 02 12 23 09 02 24 04 02 03 41
   6E 79 08 08 26 00 FFFFFF82 FFFFFF80 FFFFFFA4 FFFFFF80 04 27 01 04 62 6F
   64 79 10 03 12 28 2A 09 02 29 04 02 08 3C 62 79
   6E 61 6D 65 3E 10 02 12 2B 09 02 2C 04 02 04 55
   6E 69 74 08 05 2E 00 FFFFFF84 00 2F 01 06 3C 69 6E 69
   74 3E 14 03 30 32 33 10 03 31 00 1A 0D 01 02 08
   05 16 2D FFFFFFC0 00 17 08 06 26 2D FFFFFF84 FFFFFFC0 00 27 08 06
   35 00 FFFFFFA0 FFFFFFA0 04 36 01 07 5F 69 73 44 6F 6E 65 10
   02 12 37 09 02 38 04 02 07 42 6F 6F 6C 65 61 6E
   28 02 34 3A 10 02 12 3B 09 02 3C 04 02 08 76 6F
   6C 61 74 69 6C 65 08 08 3E 00 FFFFFF88 FFFFFFC2 FFFFFFA0 FFFFFF84 04 3F
   01 08 63 6F 6D 70 6C 65 74 65 15 01 1A 08 08 41
   00 FFFFFF88 FFFFFF80 FFFFFF80 FFFFFFA0 04 1A 01 09 63 6F 6D 70 6C 65 74
   65 20 08 05 43 00 FFFFFF84 00 44 01 06 69 73 44 6F 6E
   65 15 01 36 08 05 46 00 FFFFFF84 00 47 01 05 61 70 70
   6C 79 14 01 1A 
  InnerClass: 
   public final $anonfun$3=class scala/concurrent/DelayedLazyVal$$anonfun$3 of class scala/concurrent/DelayedLazyVal
   public final $anonfun$2=class scala/concurrent/DelayedLazyVal$$anonfun$2 of class scala/concurrent/DelayedLazyVal
   public final $anonfun$1=class scala/concurrent/DelayedLazyVal$$anonfun$1 of class scala/concurrent/DelayedLazyVal
  minor version: 0
  major version: 49
  Constant pool:
Asciz	SourceFile;
Asciz	DelayedLazyVal.scala;
Asciz	bitmap$0;
Asciz	I;
Asciz	complete;
Asciz	Ljava/lang/Object;;
Asciz	TT;;
Asciz	Signature;
Asciz	scala$concurrent$DelayedLazyVal$$_isDone;
Asciz	Z;
Asciz	scala$concurrent$DelayedLazyVal$$body;
Asciz	Lscala/Function0;;
Asciz	f;
Asciz	Lscala/Function0<TT;>;;
Asciz	()Ljava/lang/Object;;
Asciz	Code;
Asciz	LineNumberTable;
Asciz	scala/concurrent/DelayedLazyVal;
class	scala/concurrent/DelayedLazyVal
NameAndType	bitmap$0:I
Field	scala/concurrent/DelayedLazyVal.bitmap$0:I
NameAndType	f:Lscala/Function0;
Field	scala/concurrent/DelayedLazyVal.f:Lscala/Function0;
Asciz	scala/Function0;
class	scala/Function0
Asciz	apply;
NameAndType	apply:()Ljava/lang/Object;
InterfaceMethod	scala/Function0.apply:()Ljava/lang/Object;
NameAndType	complete:Ljava/lang/Object;
Field	scala/concurrent/DelayedLazyVal.complete:Ljava/lang/Object;
Asciz	scala/runtime/BoxedUnit;
class	scala/runtime/BoxedUnit
Asciz	UNIT;
Asciz	Lscala/runtime/BoxedUnit;;
NameAndType	UNIT:Lscala/runtime/BoxedUnit;
Field	scala/runtime/BoxedUnit.UNIT:Lscala/runtime/BoxedUnit;
Asciz	()TT;;
Asciz	isDone;
Asciz	()Z;
NameAndType	scala$concurrent$DelayedLazyVal$$_isDone:Z
Field	scala/concurrent/DelayedLazyVal.scala$concurrent$DelayedLazyVal$$_isDone:Z
NameAndType	isDone:()Z
Method	scala/concurrent/DelayedLazyVal.isDone:()Z
NameAndType	complete:()Ljava/lang/Object;
Method	scala/concurrent/DelayedLazyVal.complete:()Ljava/lang/Object;
Asciz	<init>;
Asciz	(Lscala/Function0;Lscala/Function0;)V;
NameAndType	scala$concurrent$DelayedLazyVal$$body:Lscala/Function0;
Field	scala/concurrent/DelayedLazyVal.scala$concurrent$DelayedLazyVal$$body:Lscala/Function0;
Asciz	java/lang/Object;
class	java/lang/Object
Asciz	()V;
NameAndType	"<init>":()V
Method	java/lang/Object."<init>":()V
Asciz	scala/concurrent/DelayedLazyVal$$anonfun$1;
class	scala/concurrent/DelayedLazyVal$$anonfun$1
Asciz	(Lscala/concurrent/DelayedLazyVal;)V;
NameAndType	"<init>":(Lscala/concurrent/DelayedLazyVal;)V
Method	scala/concurrent/DelayedLazyVal$$anonfun$1."<init>":(Lscala/concurrent/DelayedLazyVal;)V
Asciz	scala/concurrent/ops$;
class	scala/concurrent/ops$
Asciz	MODULE$;
Asciz	Lscala/concurrent/ops$;;
NameAndType	MODULE$:Lscala/concurrent/ops$;
Field	scala/concurrent/ops$.MODULE$:Lscala/concurrent/ops$;
Asciz	scala/concurrent/DelayedLazyVal$$anonfun$2;
class	scala/concurrent/DelayedLazyVal$$anonfun$2
Asciz	(Lscala/concurrent/DelayedLazyVal;Lscala/Function0;)V;
NameAndType	"<init>":(Lscala/concurrent/DelayedLazyVal;Lscala/Function0;)V
Method	scala/concurrent/DelayedLazyVal$$anonfun$2."<init>":(Lscala/concurrent/DelayedLazyVal;Lscala/Function0;)V
Asciz	future$default$2;
Asciz	(Lscala/Function0;)Lscala/concurrent/FutureTaskRunner;;
NameAndType	future$default$2:(Lscala/Function0;)Lscala/concurrent/FutureTaskRunner;
Method	scala/concurrent/ops$.future$default$2:(Lscala/Function0;)Lscala/concurrent/FutureTaskRunner;
Asciz	scala/concurrent/DelayedLazyVal$$anonfun$3;
class	scala/concurrent/DelayedLazyVal$$anonfun$3
Method	scala/concurrent/DelayedLazyVal$$anonfun$3."<init>":(Lscala/concurrent/DelayedLazyVal;Lscala/Function0;)V
Asciz	future;
Asciz	(Lscala/Function0;Lscala/concurrent/FutureTaskRunner;)Lscala/Function0;;
NameAndType	future:(Lscala/Function0;Lscala/concurrent/FutureTaskRunner;)Lscala/Function0;
Method	scala/concurrent/ops$.future:(Lscala/Function0;Lscala/concurrent/FutureTaskRunner;)Lscala/Function0;
Asciz	this;
Asciz	Lscala/concurrent/DelayedLazyVal;;
Asciz	body;
Asciz	x$1$1;
Asciz	x$2;
Asciz	Lscala/concurrent/FutureTaskRunner;;
Asciz	LocalVariableTable;
Asciz	(Lscala/Function0<TT;>;Lscala/Function0<Ljava/lang/Object;>;)V;
Asciz	<T:Ljava/lang/Object;>Ljava/lang/Object;Lscala/ScalaObject;;
Asciz	ScalaSig;
Asciz	InnerClasses;
Asciz	$anonfun$3;
Asciz	$anonfun$2;
Asciz	$anonfun$1;
Asciz	scala/ScalaObject;
class	scala/ScalaObject

{
public volatile int bitmap$0;
  Signature: I

private java.lang.Object complete;
  Signature: Ljava/lang/Object;
  Signature: length = 0x2
   00 07 

public volatile boolean scala$concurrent$DelayedLazyVal$$_isDone;
  Signature: Z

public final scala.Function0 scala$concurrent$DelayedLazyVal$$body;
  Signature: Lscala/Function0;

private final scala.Function0 f;
  Signature: Lscala/Function0;
  Signature: length = 0x2
   00 0E 

private java.lang.Object complete();
  Signature: ()Ljava/lang/Object;
  Code:
   Stack=3, Locals=2, Args_size=1
	aload_0
	getfield	Field bitmap$0:I
	iconst_1
	iand
	iconst_0
	if_icmpne	l1 // aload_0
	aload_0
	dup
	astore_1
	monitorenter
	aload_0
	getfield	Field bitmap$0:I
	iconst_1
	iand
	iconst_0
	if_icmpne	l2 // getstatic
	aload_0
	aload_0
	getfield	Field f:Lscala/Function0;
	invokeinterface	InterfaceMethod scala/Function0.apply:()Ljava/lang/Object;
	putfield	Field complete:Ljava/lang/Object;
	aload_0
	aload_0
	getfield	Field bitmap$0:I
	iconst_1
	ior
	putfield	Field bitmap$0:I
l2	getstatic	Field scala/runtime/BoxedUnit.UNIT:Lscala/runtime/BoxedUnit;
	pop
	aload_1
	monitorexit
l1	aload_0
	getfield	Field complete:Ljava/lang/Object;
	areturn
	aload_1
	monitorexit
	athrow
  Labels:
   	l2 = 47 // getstatic
   	l1 = 53 // aload_0
  Exception table:
   from   to  target type
    14    53    58   any
  Signature: length = 0x2
   00 25 

public boolean isDone();
  Signature: ()Z
  Code:
   Stack=1, Locals=1, Args_size=1
	aload_0
	getfield	Field scala$concurrent$DelayedLazyVal$$_isDone:Z
	ireturn
  Labels:

public java.lang.Object apply();
  Signature: ()Ljava/lang/Object;
  Code:
   Stack=1, Locals=1, Args_size=1
	aload_0
	invokevirtual	Method isDone:()Z
	ifeq	l1 // aload_0
	aload_0
	invokespecial	Method complete:()Ljava/lang/Object;
	goto	l2 // areturn
l1	aload_0
	getfield	Field f:Lscala/Function0;
	invokeinterface	InterfaceMethod scala/Function0.apply:()Ljava/lang/Object;
l2	areturn
  Labels:
   	l1 = 14 // aload_0
   	l2 = 23 // areturn
  Signature: length = 0x2
   00 25 

public scala.concurrent.DelayedLazyVal(scala.Function0, scala.Function0);
  Signature: (Lscala/Function0;Lscala/Function0;)V
  Code:
   Stack=5, Locals=5, Args_size=3
	aload_0
	aload_1
	putfield	Field f:Lscala/Function0;
	aload_0
	aload_2
	putfield	Field scala$concurrent$DelayedLazyVal$$body:Lscala/Function0;
	aload_0
	invokespecial	Method java/lang/Object."<init>":()V
	aload_0
	iconst_0
	putfield	Field scala$concurrent$DelayedLazyVal$$_isDone:Z
	new	class scala/concurrent/DelayedLazyVal$$anonfun$1
	dup
	aload_0
	invokespecial	Method scala/concurrent/DelayedLazyVal$$anonfun$1."<init>":(Lscala/concurrent/DelayedLazyVal;)V
	astore_3
	getstatic	Field scala/concurrent/ops$.MODULE$:Lscala/concurrent/ops$;
	new	class scala/concurrent/DelayedLazyVal$$anonfun$2
	dup
	aload_0
	aload_3
	invokespecial	Method scala/concurrent/DelayedLazyVal$$anonfun$2."<init>":(Lscala/concurrent/DelayedLazyVal;Lscala/Function0;)V
	invokevirtual	Method scala/concurrent/ops$.future$default$2:(Lscala/Function0;)Lscala/concurrent/FutureTaskRunner;
	astore	4
	getstatic	Field scala/concurrent/ops$.MODULE$:Lscala/concurrent/ops$;
	new	class scala/concurrent/DelayedLazyVal$$anonfun$3
	dup
	aload_0
	aload_3
	invokespecial	Method scala/concurrent/DelayedLazyVal$$anonfun$3."<init>":(Lscala/concurrent/DelayedLazyVal;Lscala/Function0;)V
	aload	4
	invokevirtual	Method scala/concurrent/ops$.future:(Lscala/Function0;Lscala/concurrent/FutureTaskRunner;)Lscala/Function0;
	pop
	return
  Labels:
  LocalVariableTable: 
   Start  Length  Slot  Name   Signature
   0      64      0    this       Lscala/concurrent/DelayedLazyVal;
   0      64      1    f       Lscala/Function0;
   0      64      2    body       Lscala/Function0;
   28      35      3    x$1$1       Lscala/Function0;
   45      18      4    x$2       Lscala/concurrent/FutureTaskRunner;

  Signature: length = 0x2
   00 59 

}

