Compiled from "JavaConversions.scala"
public final class scala.concurrent.JavaConversions extends java.lang.Object
  SourceFile: "JavaConversions.scala"
  ScalaSig: length = 0x150
   05 00 33 07 05 01 02 FFFFFF88 02 07 01 0F 4A 61 76 61
   43 6F 6E 76 65 72 73 69 6F 6E 73 0A 02 03 04 01
   0A 63 6F 6E 63 75 72 72 65 6E 74 0A 01 05 01 05
   73 63 61 6C 61 03 00 10 02 08 09 0D 01 02 06 08
   0A 02 FFFFFF84 FFFFFF80 FFFFFF80 FFFFFF88 02 0B 02 0F 4A 61 76 61 43 6F
   6E 76 65 72 73 69 6F 6E 73 13 03 09 0C 14 10 02
   0D 12 0D 01 0E 0A 02 0F 10 01 04 6C 61 6E 67 0A
   01 11 01 04 6A 61 76 61 09 02 13 0E 02 06 4F 62
   6A 65 63 74 10 02 15 16 0D 01 04 09 02 17 04 02
   0B 53 63 61 6C 61 4F 62 6A 65 63 74 08 05 19 09
   FFFFFF84 00 1A 01 06 3C 69 6E 69 74 3E 14 01 07 08 05
   1C 09 FFFFFF84 01 1D 01 0C 61 73 54 61 73 6B 52 75 6E
   6E 65 72 14 02 1E 21 10 02 08 1F 09 02 20 02 02
   10 46 75 74 75 72 65 54 61 73 6B 52 75 6E 6E 65
   72 08 05 22 1B FFFFFFC0 00 23 01 04 65 78 65 63 10 02
   24 28 0D 01 25 0A 02 03 26 0A 02 27 10 01 04 75
   74 69 6C 09 02 29 25 02 0F 45 78 65 63 75 74 6F
   72 53 65 72 76 69 63 65 08 05 1C 09 FFFFFF84 01 2B 14
   02 2C 2F 10 02 08 2D 09 02 2E 02 02 0A 54 61 73
   6B 52 75 6E 6E 65 72 08 05 22 2A FFFFFFC0 00 30 10 02
   24 31 09 02 32 25 02 08 45 78 65 63 75 74 6F 72
   
  InnerClass: 
   public final #23= #20 of #22; //$anon$2=class scala/concurrent/JavaConversions$$anon$2 of class scala/concurrent/JavaConversions
   public final #26= #25 of #22; //$anon$1=class scala/concurrent/JavaConversions$$anon$1 of class scala/concurrent/JavaConversions
  minor version: 0
  major version: 49
  Constant pool:
const #1 = Asciz	SourceFile;
const #2 = Asciz	JavaConversions.scala;
const #3 = Asciz	asTaskRunner;
const #4 = Asciz	(Ljava/util/concurrent/Executor;)Lscala/concurrent/TaskRunner;;
const #5 = Asciz	Code;
const #6 = Asciz	scala/concurrent/JavaConversions$;
const #7 = class	#6;	//  scala/concurrent/JavaConversions$
const #8 = Asciz	MODULE$;
const #9 = Asciz	Lscala/concurrent/JavaConversions$;;
const #10 = NameAndType	#8:#9;//  MODULE$:Lscala/concurrent/JavaConversions$;
const #11 = Field	#7.#10;	//  scala/concurrent/JavaConversions$.MODULE$:Lscala/concurrent/JavaConversions$;
const #12 = NameAndType	#3:#4;//  asTaskRunner:(Ljava/util/concurrent/Executor;)Lscala/concurrent/TaskRunner;
const #13 = Method	#7.#12;	//  scala/concurrent/JavaConversions$.asTaskRunner:(Ljava/util/concurrent/Executor;)Lscala/concurrent/TaskRunner;
const #14 = Asciz	(Ljava/util/concurrent/ExecutorService;)Lscala/concurrent/FutureTaskRunner;;
const #15 = NameAndType	#3:#14;//  asTaskRunner:(Ljava/util/concurrent/ExecutorService;)Lscala/concurrent/FutureTaskRunner;
const #16 = Method	#7.#15;	//  scala/concurrent/JavaConversions$.asTaskRunner:(Ljava/util/concurrent/ExecutorService;)Lscala/concurrent/FutureTaskRunner;
const #17 = Asciz	ScalaSig;
const #18 = Asciz	InnerClasses;
const #19 = Asciz	scala/concurrent/JavaConversions$$anon$2;
const #20 = class	#19;	//  scala/concurrent/JavaConversions$$anon$2
const #21 = Asciz	scala/concurrent/JavaConversions;
const #22 = class	#21;	//  scala/concurrent/JavaConversions
const #23 = Asciz	$anon$2;
const #24 = Asciz	scala/concurrent/JavaConversions$$anon$1;
const #25 = class	#24;	//  scala/concurrent/JavaConversions$$anon$1
const #26 = Asciz	$anon$1;
const #27 = Asciz	java/lang/Object;
const #28 = class	#27;	//  java/lang/Object

{
public static final scala.concurrent.TaskRunner asTaskRunner(java.util.concurrent.Executor);
  Code:
   Stack=2, Locals=1, Args_size=1
   0:	getstatic	#11; //Field scala/concurrent/JavaConversions$.MODULE$:Lscala/concurrent/JavaConversions$;
   3:	aload_0
   4:	invokevirtual	#13; //Method scala/concurrent/JavaConversions$.asTaskRunner:(Ljava/util/concurrent/Executor;)Lscala/concurrent/TaskRunner;
   7:	areturn

public static final scala.concurrent.FutureTaskRunner asTaskRunner(java.util.concurrent.ExecutorService);
  Code:
   Stack=2, Locals=1, Args_size=1
   0:	getstatic	#11; //Field scala/concurrent/JavaConversions$.MODULE$:Lscala/concurrent/JavaConversions$;
   3:	aload_0
   4:	invokevirtual	#16; //Method scala/concurrent/JavaConversions$.asTaskRunner:(Ljava/util/concurrent/ExecutorService;)Lscala/concurrent/FutureTaskRunner;
   7:	areturn

}

