Compiled from "TopScope.scala"
public final class scala.xml.TopScope extends java.lang.Object
  SourceFile: "TopScope.scala"
  ScalaSig: length = 0x2C9
   05 00 70 07 05 01 02 FFFFFF88 42 07 01 08 54 6F 70 53
   63 6F 70 65 0A 02 03 04 01 03 78 6D 6C 0A 01 05
   01 05 73 63 61 6C 61 03 00 10 02 08 09 0D 01 02
   06 08 0A 02 FFFFFF84 FFFFFF80 FFFFFF80 FFFFFF88 42 0B 02 08 54 6F 70 53
   63 6F 70 65 13 04 09 0C 0F 13 10 02 08 0D 09 02
   0E 02 02 10 4E 61 6D 65 73 70 61 63 65 42 69 6E
   64 69 6E 67 10 02 10 11 0D 01 04 09 02 12 04 02
   0B 53 63 61 6C 61 4F 62 6A 65 63 74 10 02 10 14
   09 02 15 04 02 07 50 72 6F 64 75 63 74 08 05 17
   09 FFFFFF84 00 18 01 06 3C 69 6E 69 74 3E 14 01 07 08
   05 1A 09 FFFFFF84 20 1B 01 06 67 65 74 55 52 49 14 02
   1C 23 10 02 1D 20 0E 02 10 1E 09 02 1F 04 01 06
   50 72 65 64 65 66 09 02 21 22 02 06 53 74 72 69
   6E 67 0A 02 1F 04 08 05 24 19 FFFFFFC0 00 1C 01 07 70
   72 65 66 69 78 31 08 05 26 09 FFFFFF84 20 27 01 09 67
   65 74 50 72 65 66 69 78 14 02 1C 28 08 05 29 25
   FFFFFFC0 00 1C 01 04 75 72 69 31 08 05 2B 09 FFFFFF84 20 2C
   01 08 74 6F 53 74 72 69 6E 67 14 01 2D 10 02 2E
   33 0D 01 2F 0A 02 30 31 01 04 6C 61 6E 67 0A 01
   32 01 04 6A 61 76 61 09 02 21 2F 08 05 35 09 FFFFFF84
   20 36 01 0B 62 75 69 6C 64 53 74 72 69 6E 67 14
   02 2D 37 08 05 38 34 FFFFFFC0 00 0C 01 04 73 74 6F 70
   08 05 35 09 FFFFFF84 20 3A 14 03 3B 3E 4C 10 02 10 3C
   09 02 3D 04 02 04 55 6E 69 74 08 05 3F 39 FFFFFFC0 00
   40 01 02 73 62 10 02 41 49 0E 02 42 47 0E 02 43
   46 0D 01 44 0A 02 45 06 01 06 3C 72 6F 6F 74 3E
   09 01 05 09 02 48 04 01 07 70 61 63 6B 61 67 65
   09 02 4A 4B 02 0D 53 74 72 69 6E 67 42 75 69 6C
   64 65 72 0A 02 48 04 08 05 4D 39 FFFFFFC0 00 0C 01 06
   69 67 6E 6F 72 65 08 08 4F 09 FFFFFF84 FFFFFF80 FFFFFF80 FFFFFF84 20 50
   01 0D 70 72 6F 64 75 63 74 50 72 65 66 69 78 15
   01 2D 08 08 52 09 FFFFFF84 FFFFFF80 FFFFFF80 FFFFFF84 20 53 01 0C 70 72
   6F 64 75 63 74 41 72 69 74 79 15 01 54 10 02 10
   55 09 02 56 04 02 03 49 6E 74 08 08 58 09 FFFFFF84 FFFFFF80
   FFFFFF80 FFFFFF84 20 59 01 0E 70 72 6F 64 75 63 74 45 6C 65
   6D 65 6E 74 14 02 5A 5D 10 02 10 5B 09 02 5C 04
   02 03 41 6E 79 08 07 5E 57 FFFFFF81 FFFFFF80 FFFFFFC0 00 54 01 03
   78 24 31 08 08 60 09 FFFFFF84 FFFFFF80 FFFFFF80 FFFFFF84 20 61 01 08 63
   61 6E 45 71 75 61 6C 14 02 62 65 10 02 10 63 09
   02 64 04 02 07 42 6F 6F 6C 65 61 6E 08 07 5E 5F
   FFFFFF81 FFFFFF80 FFFFFFC0 00 5A 08 08 67 09 FFFFFF84 FFFFFF80 FFFFFF80 FFFFFF84 08 68 01
   0B 72 65 61 64 52 65 73 6F 6C 76 65 14 01 69 10
   02 2E 6A 09 02 6B 2F 02 06 4F 62 6A 65 63 74 28
   02 09 6D 10 02 10 6E 09 02 6F 04 02 0C 73 65 72
   69 61 6C 69 7A 61 62 6C 65 
  minor version: 0
  major version: 49
  Constant pool:
const #1 = Asciz	SourceFile;
const #2 = Asciz	TopScope.scala;
const #3 = Asciz	canEqual;
const #4 = Asciz	(Ljava/lang/Object;)Z;
const #5 = Asciz	Code;
const #6 = Asciz	scala/xml/TopScope$;
const #7 = class	#6;	//  scala/xml/TopScope$
const #8 = Asciz	MODULE$;
const #9 = Asciz	Lscala/xml/TopScope$;;
const #10 = NameAndType	#8:#9;//  MODULE$:Lscala/xml/TopScope$;
const #11 = Field	#7.#10;	//  scala/xml/TopScope$.MODULE$:Lscala/xml/TopScope$;
const #12 = NameAndType	#3:#4;//  canEqual:(Ljava/lang/Object;)Z
const #13 = Method	#7.#12;	//  scala/xml/TopScope$.canEqual:(Ljava/lang/Object;)Z
const #14 = Asciz	productElement;
const #15 = Asciz	(I)Ljava/lang/Object;;
const #16 = NameAndType	#14:#15;//  productElement:(I)Ljava/lang/Object;
const #17 = Method	#7.#16;	//  scala/xml/TopScope$.productElement:(I)Ljava/lang/Object;
const #18 = Asciz	productArity;
const #19 = Asciz	()I;
const #20 = NameAndType	#18:#19;//  productArity:()I
const #21 = Method	#7.#20;	//  scala/xml/TopScope$.productArity:()I
const #22 = Asciz	productPrefix;
const #23 = Asciz	()Ljava/lang/String;;
const #24 = NameAndType	#22:#23;//  productPrefix:()Ljava/lang/String;
const #25 = Method	#7.#24;	//  scala/xml/TopScope$.productPrefix:()Ljava/lang/String;
const #26 = Asciz	buildString;
const #27 = Asciz	(Lscala/collection/mutable/StringBuilder;Lscala/xml/NamespaceBinding;)V;
const #28 = NameAndType	#26:#27;//  buildString:(Lscala/collection/mutable/StringBuilder;Lscala/xml/NamespaceBinding;)V
const #29 = Method	#7.#28;	//  scala/xml/TopScope$.buildString:(Lscala/collection/mutable/StringBuilder;Lscala/xml/NamespaceBinding;)V
const #30 = Asciz	(Lscala/xml/NamespaceBinding;)Ljava/lang/String;;
const #31 = NameAndType	#26:#30;//  buildString:(Lscala/xml/NamespaceBinding;)Ljava/lang/String;
const #32 = Method	#7.#31;	//  scala/xml/TopScope$.buildString:(Lscala/xml/NamespaceBinding;)Ljava/lang/String;
const #33 = Asciz	getPrefix;
const #34 = Asciz	(Ljava/lang/String;)Ljava/lang/String;;
const #35 = NameAndType	#33:#34;//  getPrefix:(Ljava/lang/String;)Ljava/lang/String;
const #36 = Method	#7.#35;	//  scala/xml/TopScope$.getPrefix:(Ljava/lang/String;)Ljava/lang/String;
const #37 = Asciz	getURI;
const #38 = NameAndType	#37:#34;//  getURI:(Ljava/lang/String;)Ljava/lang/String;
const #39 = Method	#7.#38;	//  scala/xml/TopScope$.getURI:(Ljava/lang/String;)Ljava/lang/String;
const #40 = Asciz	productElements;
const #41 = Asciz	()Lscala/collection/Iterator;;
const #42 = NameAndType	#40:#41;//  productElements:()Lscala/collection/Iterator;
const #43 = Method	#7.#42;	//  scala/xml/TopScope$.productElements:()Lscala/collection/Iterator;
const #44 = Asciz	productIterator;
const #45 = NameAndType	#44:#41;//  productIterator:()Lscala/collection/Iterator;
const #46 = Method	#7.#45;	//  scala/xml/TopScope$.productIterator:()Lscala/collection/Iterator;
const #47 = Asciz	copy$default$3;
const #48 = Asciz	()Lscala/xml/NamespaceBinding;;
const #49 = NameAndType	#47:#48;//  copy$default$3:()Lscala/xml/NamespaceBinding;
const #50 = Method	#7.#49;	//  scala/xml/TopScope$.copy$default$3:()Lscala/xml/NamespaceBinding;
const #51 = Asciz	copy$default$2;
const #52 = NameAndType	#51:#23;//  copy$default$2:()Ljava/lang/String;
const #53 = Method	#7.#52;	//  scala/xml/TopScope$.copy$default$2:()Ljava/lang/String;
const #54 = Asciz	copy$default$1;
const #55 = NameAndType	#54:#23;//  copy$default$1:()Ljava/lang/String;
const #56 = Method	#7.#55;	//  scala/xml/TopScope$.copy$default$1:()Ljava/lang/String;
const #57 = Asciz	copy;
const #58 = Asciz	(Ljava/lang/String;Ljava/lang/String;Lscala/xml/NamespaceBinding;)Lscala/xml/NamespaceBinding;;
const #59 = NameAndType	#57:#58;//  copy:(Ljava/lang/String;Ljava/lang/String;Lscala/xml/NamespaceBinding;)Lscala/xml/NamespaceBinding;
const #60 = Method	#7.#59;	//  scala/xml/TopScope$.copy:(Ljava/lang/String;Ljava/lang/String;Lscala/xml/NamespaceBinding;)Lscala/xml/NamespaceBinding;
const #61 = Asciz	parent;
const #62 = NameAndType	#61:#48;//  parent:()Lscala/xml/NamespaceBinding;
const #63 = Method	#7.#62;	//  scala/xml/TopScope$.parent:()Lscala/xml/NamespaceBinding;
const #64 = Asciz	uri;
const #65 = NameAndType	#64:#23;//  uri:()Ljava/lang/String;
const #66 = Method	#7.#65;	//  scala/xml/TopScope$.uri:()Ljava/lang/String;
const #67 = Asciz	prefix;
const #68 = NameAndType	#67:#23;//  prefix:()Ljava/lang/String;
const #69 = Method	#7.#68;	//  scala/xml/TopScope$.prefix:()Ljava/lang/String;
const #70 = Asciz	ScalaSig;
const #71 = Asciz	scala/xml/TopScope;
const #72 = class	#71;	//  scala/xml/TopScope
const #73 = Asciz	java/lang/Object;
const #74 = class	#73;	//  java/lang/Object

{
public static final boolean canEqual(java.lang.Object);
  Code:
   Stack=2, Locals=1, Args_size=1
   0:	getstatic	#11; //Field scala/xml/TopScope$.MODULE$:Lscala/xml/TopScope$;
   3:	aload_0
   4:	invokevirtual	#13; //Method scala/xml/TopScope$.canEqual:(Ljava/lang/Object;)Z
   7:	ireturn

public static final java.lang.Object productElement(int);
  Code:
   Stack=2, Locals=1, Args_size=1
   0:	getstatic	#11; //Field scala/xml/TopScope$.MODULE$:Lscala/xml/TopScope$;
   3:	iload_0
   4:	invokevirtual	#17; //Method scala/xml/TopScope$.productElement:(I)Ljava/lang/Object;
   7:	areturn

public static final int productArity();
  Code:
   Stack=1, Locals=0, Args_size=0
   0:	getstatic	#11; //Field scala/xml/TopScope$.MODULE$:Lscala/xml/TopScope$;
   3:	invokevirtual	#21; //Method scala/xml/TopScope$.productArity:()I
   6:	ireturn

public static final java.lang.String productPrefix();
  Code:
   Stack=1, Locals=0, Args_size=0
   0:	getstatic	#11; //Field scala/xml/TopScope$.MODULE$:Lscala/xml/TopScope$;
   3:	invokevirtual	#25; //Method scala/xml/TopScope$.productPrefix:()Ljava/lang/String;
   6:	areturn

public static final void buildString(scala.collection.mutable.StringBuilder, scala.xml.NamespaceBinding);
  Code:
   Stack=3, Locals=2, Args_size=2
   0:	getstatic	#11; //Field scala/xml/TopScope$.MODULE$:Lscala/xml/TopScope$;
   3:	aload_0
   4:	aload_1
   5:	invokevirtual	#29; //Method scala/xml/TopScope$.buildString:(Lscala/collection/mutable/StringBuilder;Lscala/xml/NamespaceBinding;)V
   8:	return

public static final java.lang.String buildString(scala.xml.NamespaceBinding);
  Code:
   Stack=2, Locals=1, Args_size=1
   0:	getstatic	#11; //Field scala/xml/TopScope$.MODULE$:Lscala/xml/TopScope$;
   3:	aload_0
   4:	invokevirtual	#32; //Method scala/xml/TopScope$.buildString:(Lscala/xml/NamespaceBinding;)Ljava/lang/String;
   7:	areturn

public static final java.lang.String getPrefix(java.lang.String);
  Code:
   Stack=2, Locals=1, Args_size=1
   0:	getstatic	#11; //Field scala/xml/TopScope$.MODULE$:Lscala/xml/TopScope$;
   3:	aload_0
   4:	invokevirtual	#36; //Method scala/xml/TopScope$.getPrefix:(Ljava/lang/String;)Ljava/lang/String;
   7:	areturn

public static final java.lang.String getURI(java.lang.String);
  Code:
   Stack=2, Locals=1, Args_size=1
   0:	getstatic	#11; //Field scala/xml/TopScope$.MODULE$:Lscala/xml/TopScope$;
   3:	aload_0
   4:	invokevirtual	#39; //Method scala/xml/TopScope$.getURI:(Ljava/lang/String;)Ljava/lang/String;
   7:	areturn

public static final scala.collection.Iterator productElements();
  Code:
   Stack=1, Locals=0, Args_size=0
   0:	getstatic	#11; //Field scala/xml/TopScope$.MODULE$:Lscala/xml/TopScope$;
   3:	invokevirtual	#43; //Method scala/xml/TopScope$.productElements:()Lscala/collection/Iterator;
   6:	areturn

public static final scala.collection.Iterator productIterator();
  Code:
   Stack=1, Locals=0, Args_size=0
   0:	getstatic	#11; //Field scala/xml/TopScope$.MODULE$:Lscala/xml/TopScope$;
   3:	invokevirtual	#46; //Method scala/xml/TopScope$.productIterator:()Lscala/collection/Iterator;
   6:	areturn

public static final scala.xml.NamespaceBinding copy$default$3();
  Code:
   Stack=1, Locals=0, Args_size=0
   0:	getstatic	#11; //Field scala/xml/TopScope$.MODULE$:Lscala/xml/TopScope$;
   3:	invokevirtual	#50; //Method scala/xml/TopScope$.copy$default$3:()Lscala/xml/NamespaceBinding;
   6:	areturn

public static final java.lang.String copy$default$2();
  Code:
   Stack=1, Locals=0, Args_size=0
   0:	getstatic	#11; //Field scala/xml/TopScope$.MODULE$:Lscala/xml/TopScope$;
   3:	invokevirtual	#53; //Method scala/xml/TopScope$.copy$default$2:()Ljava/lang/String;
   6:	areturn

public static final java.lang.String copy$default$1();
  Code:
   Stack=1, Locals=0, Args_size=0
   0:	getstatic	#11; //Field scala/xml/TopScope$.MODULE$:Lscala/xml/TopScope$;
   3:	invokevirtual	#56; //Method scala/xml/TopScope$.copy$default$1:()Ljava/lang/String;
   6:	areturn

public static final scala.xml.NamespaceBinding copy(java.lang.String, java.lang.String, scala.xml.NamespaceBinding);
  Code:
   Stack=4, Locals=3, Args_size=3
   0:	getstatic	#11; //Field scala/xml/TopScope$.MODULE$:Lscala/xml/TopScope$;
   3:	aload_0
   4:	aload_1
   5:	aload_2
   6:	invokevirtual	#60; //Method scala/xml/TopScope$.copy:(Ljava/lang/String;Ljava/lang/String;Lscala/xml/NamespaceBinding;)Lscala/xml/NamespaceBinding;
   9:	areturn

public static final scala.xml.NamespaceBinding parent();
  Code:
   Stack=1, Locals=0, Args_size=0
   0:	getstatic	#11; //Field scala/xml/TopScope$.MODULE$:Lscala/xml/TopScope$;
   3:	invokevirtual	#63; //Method scala/xml/TopScope$.parent:()Lscala/xml/NamespaceBinding;
   6:	areturn

public static final java.lang.String uri();
  Code:
   Stack=1, Locals=0, Args_size=0
   0:	getstatic	#11; //Field scala/xml/TopScope$.MODULE$:Lscala/xml/TopScope$;
   3:	invokevirtual	#66; //Method scala/xml/TopScope$.uri:()Ljava/lang/String;
   6:	areturn

public static final java.lang.String prefix();
  Code:
   Stack=1, Locals=0, Args_size=0
   0:	getstatic	#11; //Field scala/xml/TopScope$.MODULE$:Lscala/xml/TopScope$;
   3:	invokevirtual	#69; //Method scala/xml/TopScope$.prefix:()Ljava/lang/String;
   6:	areturn

}

