Compiled from "package.scala"
public final class scala.util.continuations.package extends java.lang.Object
  SourceFile: "package.scala"
  ScalaSig: length = 0x510
   05 00 FFFFFF81 43 07 05 01 02 FFFFFF88 02 09 01 07 70 61 63
   6B 61 67 65 0A 02 03 04 01 0D 63 6F 6E 74 69 6E
   75 61 74 69 6F 6E 73 0A 02 05 06 01 04 75 74 69
   6C 0A 01 07 01 05 73 63 61 6C 61 03 00 10 02 0A
   0B 0D 01 02 06 08 0C 02 FFFFFF84 FFFFFF80 FFFFFF80 FFFFFF88 02 0D 02 07
   70 61 63 6B 61 67 65 13 03 0B 0E 16 10 02 0F 14
   0D 01 10 0A 02 11 12 01 04 6C 61 6E 67 0A 01 13
   01 04 6A 61 76 61 09 02 15 10 02 06 4F 62 6A 65
   63 74 10 02 17 18 0D 01 06 09 02 19 06 02 0B 53
   63 61 6C 61 4F 62 6A 65 63 74 08 05 1B 0B FFFFFF84 00
   1C 01 06 3C 69 6E 69 74 3E 14 01 09 05 04 1E 0B
   00 1F 02 03 63 70 73 15 02 20 25 10 04 0A 21 23
   23 09 02 22 02 02 08 63 70 73 50 61 72 61 6D 10
   02 24 25 0C 00 04 08 26 1D FFFFFF84 FFFFFF80 FFFFFF80 FFFFFFC2 00 27 02
   01 41 11 02 28 2B 10 02 17 29 09 02 2A 06 02 07
   4E 6F 74 68 69 6E 67 10 02 17 2C 09 02 2D 06 02
   03 41 6E 79 05 08 2F 0B FFFFFF84 FFFFFF80 FFFFFF80 FFFFFF80 00 30 02 0B
   73 75 73 70 65 6E 64 61 62 6C 65 10 03 31 1D 32
   0D 01 0B 10 02 17 33 09 02 34 06 02 04 55 6E 69
   74 08 05 36 0B FFFFFF84 00 37 01 05 73 68 69 66 74 15
   04 38 3B 3F 42 14 02 39 44 2A 02 3A 3C 10 02 24
   3B 04 08 26 35 FFFFFF84 FFFFFF80 FFFFFF80 FFFFFFC2 00 27 2B 01 3D 10 04
   0A 21 3E 41 10 02 24 3F 04 08 40 35 FFFFFF84 FFFFFF80 FFFFFF80 FFFFFFC2
   00 27 02 01 42 10 02 24 42 04 08 43 35 FFFFFF84 FFFFFF80 FFFFFF80
   FFFFFFC2 00 27 02 01 43 08 05 45 35 FFFFFFC0 00 46 01 03 66
   75 6E 10 04 17 47 49 41 09 02 48 06 02 09 46 75
   6E 63 74 69 6F 6E 31 10 04 17 47 3A 3E 08 05 4B
   0B FFFFFF84 00 4C 01 05 72 65 73 65 74 15 03 4D 57 4F
   14 02 4E 50 10 02 24 4F 04 08 43 4A FFFFFF84 FFFFFF80 FFFFFF80 FFFFFFC2
   00 27 08 06 51 4A FFFFFF84 FFFFFFC0 00 52 01 03 63 74 78 10
   03 17 53 55 09 02 54 06 02 08 3C 62 79 6E 61 6D
   65 3E 2A 02 56 58 10 02 24 57 04 08 26 4A FFFFFF84 FFFFFF80
   FFFFFF80 FFFFFFC2 00 27 2B 01 59 10 04 0A 21 56 4E 08 05 5B
   0B FFFFFF84 00 5C 01 06 72 65 73 65 74 30 15 02 5D 5F
   14 02 5E 60 10 02 24 5F 04 08 26 5A FFFFFF84 FFFFFF80 FFFFFF80 FFFFFFC2
   00 27 08 06 51 5A FFFFFF84 FFFFFFC0 00 61 10 03 17 53 62 2A
   02 5E 63 2B 01 64 10 04 0A 21 5E 5E 08 05 66 0B
   FFFFFF84 00 67 01 03 72 75 6E 15 02 68 6A 14 02 69 6B
   10 02 24 6A 04 08 26 65 FFFFFF84 FFFFFF80 FFFFFF80 FFFFFFC2 00 27 08 06
   51 65 FFFFFF84 FFFFFFC0 00 6C 10 03 17 53 6D 2A 02 2B 6E 2B
   01 6F 10 04 0A 21 32 69 08 05 71 0B FFFFFF84 00 72 01
   0A 73 68 69 66 74 55 6E 69 74 30 15 03 73 76 7A
   14 02 74 7B 2A 02 75 77 10 02 24 76 04 08 26 70
   FFFFFF84 FFFFFF80 FFFFFF80 FFFFFFC2 00 27 2B 01 78 10 04 0A 21 79 79 10
   02 24 7A 04 08 40 70 FFFFFF84 FFFFFF80 FFFFFF80 FFFFFFC2 00 27 08 05 7C
   70 FFFFFFC0 00 75 01 01 78 08 05 7E 0B FFFFFF84 00 7F 01 09
   73 68 69 66 74 55 6E 69 74 15 08 FFFFFF81 00 FFFFFF81 03 FFFFFF81
   07 FFFFFF81 09 14 04 FFFFFF81 01 FFFFFF81 0B 2A 04 FFFFFF81 02 FFFFFF81 04 10
   03 24 FFFFFF81 03 04 08 26 7D FFFFFF84 FFFFFF80 FFFFFF80 FFFFFFC2 00 27 2B 02
   FFFFFF81 05 10 06 0A 21 FFFFFF81 06 FFFFFF81 08 10 03 24 FFFFFF81 07 04
   08 40 7D FFFFFF84 FFFFFF80 FFFFFF80 FFFFFFC2 00 27 10 03 24 FFFFFF81 09 04 09
   43 7D FFFFFF84 FFFFFF80 FFFFFF80 FFFFFFC2 00 FFFFFF81 0A 11 03 FFFFFF81 06 2B 08 06
   7C 7D FFFFFFC0 00 FFFFFF81 02 08 07 FFFFFF81 0D 0B FFFFFF84 00 FFFFFF81 0E 01
   05 72 65 69 66 79 15 08 FFFFFF81 0F FFFFFF81 14 FFFFFF81 16 FFFFFF81 18
   14 04 FFFFFF81 10 FFFFFF81 19 10 09 0A FFFFFF81 11 FFFFFF81 13 FFFFFF81 15 FFFFFF81
   17 09 03 FFFFFF81 12 02 02 0E 43 6F 6E 74 72 6F 6C 43
   6F 6E 74 65 78 74 10 03 24 FFFFFF81 14 04 09 26 FFFFFF81 0C
   FFFFFF84 FFFFFF80 FFFFFF80 FFFFFFC2 00 27 10 03 24 FFFFFF81 16 04 09 40 FFFFFF81 0C
   FFFFFF84 FFFFFF80 FFFFFF80 FFFFFFC2 00 27 10 03 24 FFFFFF81 18 04 09 43 FFFFFF81 0C
   FFFFFF84 FFFFFF80 FFFFFF80 FFFFFFC2 00 27 08 08 51 FFFFFF81 0C FFFFFF84 FFFFFFC0 00 FFFFFF81 1A
   10 04 17 53 FFFFFF81 1B 2A 04 FFFFFF81 13 FFFFFF81 1C 2B 02 FFFFFF81 1D
   10 06 0A 21 FFFFFF81 15 FFFFFF81 17 08 07 FFFFFF81 1F 0B FFFFFF84 00 FFFFFF81
   20 01 0A 73 68 69 66 74 55 6E 69 74 52 15 06 FFFFFF81
   21 FFFFFF81 24 FFFFFF81 26 14 04 FFFFFF81 22 FFFFFF81 27 10 09 0A FFFFFF81 11
   FFFFFF81 23 FFFFFF81 25 FFFFFF81 25 10 03 24 FFFFFF81 24 04 09 26 FFFFFF81 1E
   FFFFFF84 FFFFFF80 FFFFFF80 FFFFFFC2 00 27 10 03 24 FFFFFF81 26 04 09 40 FFFFFF81 1E
   FFFFFF84 FFFFFF80 FFFFFF80 FFFFFFC2 00 27 08 07 7C FFFFFF81 1E FFFFFFC0 00 FFFFFF81 23 08
   07 FFFFFF81 29 0B FFFFFF84 00 FFFFFF81 2A 01 06 73 68 69 66 74 52
   15 08 FFFFFF81 2B FFFFFF81 2E FFFFFF81 30 FFFFFF81 32 14 04 FFFFFF81 2C FFFFFF81 33
   10 09 0A FFFFFF81 11 FFFFFF81 2D FFFFFF81 2F FFFFFF81 31 10 03 24 FFFFFF81 2E
   04 09 26 FFFFFF81 28 FFFFFF84 FFFFFF80 FFFFFF80 FFFFFFC2 00 27 10 03 24 FFFFFF81 30
   04 09 40 FFFFFF81 28 FFFFFF84 FFFFFF80 FFFFFF80 FFFFFFC2 00 27 10 03 24 FFFFFF81 32
   04 09 43 FFFFFF81 28 FFFFFF84 FFFFFF80 FFFFFF80 FFFFFFC2 00 27 08 07 45 FFFFFF81 28
   FFFFFFC0 00 FFFFFF81 34 10 06 17 47 FFFFFF81 35 FFFFFF81 31 10 06 17 47
   FFFFFF81 2D FFFFFF81 2F 08 07 FFFFFF81 37 0B FFFFFF84 00 FFFFFF81 38 01 06 72
   65 69 66 79 52 15 08 FFFFFF81 39 FFFFFF81 3C FFFFFF81 3E FFFFFF81 40 14
   04 FFFFFF81 3A FFFFFF81 41 10 09 0A FFFFFF81 11 FFFFFF81 3B FFFFFF81 3D FFFFFF81 3F
   10 03 24 FFFFFF81 3C 04 09 26 FFFFFF81 36 FFFFFF84 FFFFFF80 FFFFFF80 FFFFFFC2 00 27
   10 03 24 FFFFFF81 3E 04 09 40 FFFFFF81 36 FFFFFF84 FFFFFF80 FFFFFF80 FFFFFFC2 00 27
   10 03 24 FFFFFF81 40 04 09 43 FFFFFF81 36 FFFFFF84 FFFFFF80 FFFFFF80 FFFFFFC2 00 27
   08 08 51 FFFFFF81 36 FFFFFF84 FFFFFFC0 00 FFFFFF81 42 10 04 17 53 FFFFFF81 3A
   
  InnerClass: 
   public final $anonfun$run$1=class scala/util/continuations/package$$anonfun$run$1 of class scala/util/continuations/package
   public final $anonfun$reset$1=class scala/util/continuations/package$$anonfun$reset$1 of class scala/util/continuations/package
   public final $anonfun$shiftR$1=class scala/util/continuations/package$$anonfun$shiftR$1 of class scala/util/continuations/package
  minor version: 0
  major version: 49
  Constant pool:
Asciz	SourceFile;
Asciz	package.scala;
Asciz	reifyR;
Asciz	(Lscala/Function0;)Lscala/util/continuations/ControlContext;;
Asciz	Code;
Asciz	scala/util/continuations/package$;
class	scala/util/continuations/package$
Asciz	MODULE$;
Asciz	Lscala/util/continuations/package$;;
NameAndType	MODULE$:Lscala/util/continuations/package$;
Field	scala/util/continuations/package$.MODULE$:Lscala/util/continuations/package$;
NameAndType	reifyR:(Lscala/Function0;)Lscala/util/continuations/ControlContext;
Method	scala/util/continuations/package$.reifyR:(Lscala/Function0;)Lscala/util/continuations/ControlContext;
Asciz	<A:Ljava/lang/Object;B:Ljava/lang/Object;C:Ljava/lang/Object;>(Lscala/Function0<Lscala/util/continuations/ControlContext<TA;TB;TC;>;>;)Lscala/util/continuations/ControlContext<TA;TB;TC;>;;
Asciz	Signature;
Asciz	shiftR;
Asciz	(Lscala/Function1;)Lscala/util/continuations/ControlContext;;
NameAndType	shiftR:(Lscala/Function1;)Lscala/util/continuations/ControlContext;
Method	scala/util/continuations/package$.shiftR:(Lscala/Function1;)Lscala/util/continuations/ControlContext;
Asciz	<A:Ljava/lang/Object;B:Ljava/lang/Object;C:Ljava/lang/Object;>(Lscala/Function1<Lscala/Function1<TA;TB;>;TC;>;)Lscala/util/continuations/ControlContext<TA;TB;TC;>;;
Asciz	shiftUnitR;
Asciz	(Ljava/lang/Object;)Lscala/util/continuations/ControlContext;;
NameAndType	shiftUnitR:(Ljava/lang/Object;)Lscala/util/continuations/ControlContext;
Method	scala/util/continuations/package$.shiftUnitR:(Ljava/lang/Object;)Lscala/util/continuations/ControlContext;
Asciz	<A:Ljava/lang/Object;B:Ljava/lang/Object;>(TA;)Lscala/util/continuations/ControlContext<TA;TB;TB;>;;
Asciz	reify;
NameAndType	reify:(Lscala/Function0;)Lscala/util/continuations/ControlContext;
Method	scala/util/continuations/package$.reify:(Lscala/Function0;)Lscala/util/continuations/ControlContext;
Asciz	shiftUnit;
NameAndType	shiftUnit:(Ljava/lang/Object;)Lscala/util/continuations/ControlContext;
Method	scala/util/continuations/package$.shiftUnit:(Ljava/lang/Object;)Lscala/util/continuations/ControlContext;
Asciz	<A:Ljava/lang/Object;B:Ljava/lang/Object;C:Ljava/lang/Object;>(TA;)Lscala/util/continuations/ControlContext<TA;TB;TC;>;;
Asciz	shiftUnit0;
NameAndType	shiftUnit0:(Ljava/lang/Object;)Lscala/util/continuations/ControlContext;
Method	scala/util/continuations/package$.shiftUnit0:(Ljava/lang/Object;)Lscala/util/continuations/ControlContext;
Asciz	run;
Asciz	(Lscala/Function0;)Ljava/lang/Object;;
NameAndType	run:(Lscala/Function0;)Ljava/lang/Object;
Method	scala/util/continuations/package$.run:(Lscala/Function0;)Ljava/lang/Object;
Asciz	<A:Ljava/lang/Object;>(Lscala/Function0<Lscala/util/continuations/ControlContext<Ljava/lang/Object;Ljava/lang/Object;TA;>;>;)TA;;
Asciz	reset0;
NameAndType	reset0:(Lscala/Function0;)Ljava/lang/Object;
Method	scala/util/continuations/package$.reset0:(Lscala/Function0;)Ljava/lang/Object;
Asciz	<A:Ljava/lang/Object;>(Lscala/Function0<Lscala/util/continuations/ControlContext<TA;TA;TA;>;>;)TA;;
Asciz	reset;
NameAndType	reset:(Lscala/Function0;)Ljava/lang/Object;
Method	scala/util/continuations/package$.reset:(Lscala/Function0;)Ljava/lang/Object;
Asciz	<A:Ljava/lang/Object;C:Ljava/lang/Object;>(Lscala/Function0<Lscala/util/continuations/ControlContext<TA;TA;TC;>;>;)TC;;
Asciz	shift;
NameAndType	shift:(Lscala/Function1;)Lscala/util/continuations/ControlContext;
Method	scala/util/continuations/package$.shift:(Lscala/Function1;)Lscala/util/continuations/ControlContext;
Asciz	ScalaSig;
Asciz	InnerClasses;
Asciz	scala/util/continuations/package$$anonfun$run$1;
class	scala/util/continuations/package$$anonfun$run$1
Asciz	scala/util/continuations/package;
class	scala/util/continuations/package
Asciz	$anonfun$run$1;
Asciz	scala/util/continuations/package$$anonfun$reset$1;
class	scala/util/continuations/package$$anonfun$reset$1
Asciz	$anonfun$reset$1;
Asciz	scala/util/continuations/package$$anonfun$shiftR$1;
class	scala/util/continuations/package$$anonfun$shiftR$1
Asciz	$anonfun$shiftR$1;
Asciz	java/lang/Object;
class	java/lang/Object

{
public static final scala.util.continuations.ControlContext reifyR(scala.Function0);
  Signature: (Lscala/Function0;)Lscala/util/continuations/ControlContext;
  Code:
   Stack=2, Locals=1, Args_size=1
	getstatic	Field scala/util/continuations/package$.MODULE$:Lscala/util/continuations/package$;
	aload_0
	invokevirtual	Method scala/util/continuations/package$.reifyR:(Lscala/Function0;)Lscala/util/continuations/ControlContext;
	areturn
  Labels:
  Signature: length = 0x2
   00 0E 

public static final scala.util.continuations.ControlContext shiftR(scala.Function1);
  Signature: (Lscala/Function1;)Lscala/util/continuations/ControlContext;
  Code:
   Stack=2, Locals=1, Args_size=1
	getstatic	Field scala/util/continuations/package$.MODULE$:Lscala/util/continuations/package$;
	aload_0
	invokevirtual	Method scala/util/continuations/package$.shiftR:(Lscala/Function1;)Lscala/util/continuations/ControlContext;
	areturn
  Labels:
  Signature: length = 0x2
   00 14 

public static final scala.util.continuations.ControlContext shiftUnitR(java.lang.Object);
  Signature: (Ljava/lang/Object;)Lscala/util/continuations/ControlContext;
  Code:
   Stack=2, Locals=1, Args_size=1
	getstatic	Field scala/util/continuations/package$.MODULE$:Lscala/util/continuations/package$;
	aload_0
	invokevirtual	Method scala/util/continuations/package$.shiftUnitR:(Ljava/lang/Object;)Lscala/util/continuations/ControlContext;
	areturn
  Labels:
  Signature: length = 0x2
   00 19 

public static final scala.util.continuations.ControlContext reify(scala.Function0);
  Signature: (Lscala/Function0;)Lscala/util/continuations/ControlContext;
  Code:
   Stack=2, Locals=1, Args_size=1
	getstatic	Field scala/util/continuations/package$.MODULE$:Lscala/util/continuations/package$;
	aload_0
	invokevirtual	Method scala/util/continuations/package$.reify:(Lscala/Function0;)Lscala/util/continuations/ControlContext;
	areturn
  Labels:
  Signature: length = 0x2
   00 0E 

public static final scala.util.continuations.ControlContext shiftUnit(java.lang.Object);
  Signature: (Ljava/lang/Object;)Lscala/util/continuations/ControlContext;
  Code:
   Stack=2, Locals=1, Args_size=1
	getstatic	Field scala/util/continuations/package$.MODULE$:Lscala/util/continuations/package$;
	aload_0
	invokevirtual	Method scala/util/continuations/package$.shiftUnit:(Ljava/lang/Object;)Lscala/util/continuations/ControlContext;
	areturn
  Labels:
  Signature: length = 0x2
   00 20 

public static final scala.util.continuations.ControlContext shiftUnit0(java.lang.Object);
  Signature: (Ljava/lang/Object;)Lscala/util/continuations/ControlContext;
  Code:
   Stack=2, Locals=1, Args_size=1
	getstatic	Field scala/util/continuations/package$.MODULE$:Lscala/util/continuations/package$;
	aload_0
	invokevirtual	Method scala/util/continuations/package$.shiftUnit0:(Ljava/lang/Object;)Lscala/util/continuations/ControlContext;
	areturn
  Labels:
  Signature: length = 0x2
   00 19 

public static final java.lang.Object run(scala.Function0);
  Signature: (Lscala/Function0;)Ljava/lang/Object;
  Code:
   Stack=2, Locals=1, Args_size=1
	getstatic	Field scala/util/continuations/package$.MODULE$:Lscala/util/continuations/package$;
	aload_0
	invokevirtual	Method scala/util/continuations/package$.run:(Lscala/Function0;)Ljava/lang/Object;
	areturn
  Labels:
  Signature: length = 0x2
   00 28 

public static final java.lang.Object reset0(scala.Function0);
  Signature: (Lscala/Function0;)Ljava/lang/Object;
  Code:
   Stack=2, Locals=1, Args_size=1
	getstatic	Field scala/util/continuations/package$.MODULE$:Lscala/util/continuations/package$;
	aload_0
	invokevirtual	Method scala/util/continuations/package$.reset0:(Lscala/Function0;)Ljava/lang/Object;
	areturn
  Labels:
  Signature: length = 0x2
   00 2C 

public static final java.lang.Object reset(scala.Function0);
  Signature: (Lscala/Function0;)Ljava/lang/Object;
  Code:
   Stack=2, Locals=1, Args_size=1
	getstatic	Field scala/util/continuations/package$.MODULE$:Lscala/util/continuations/package$;
	aload_0
	invokevirtual	Method scala/util/continuations/package$.reset:(Lscala/Function0;)Ljava/lang/Object;
	areturn
  Labels:
  Signature: length = 0x2
   00 30 

public static final scala.util.continuations.ControlContext shift(scala.Function1);
  Signature: (Lscala/Function1;)Lscala/util/continuations/ControlContext;
  Code:
   Stack=2, Locals=1, Args_size=1
	getstatic	Field scala/util/continuations/package$.MODULE$:Lscala/util/continuations/package$;
	aload_0
	invokevirtual	Method scala/util/continuations/package$.shift:(Lscala/Function1;)Lscala/util/continuations/ControlContext;
	areturn
  Labels:
  Signature: length = 0x2
   00 14 

}

