Compiled from "ConstructingHandler.scala"
public abstract class scala.xml.parsing.ConstructingHandler extends scala.xml.parsing.MarkupHandler implements scala.ScalaObject
  SourceFile: "ConstructingHandler.scala"
  ScalaSig: length = 0x27C
   05 00 63 06 08 01 02 FFFFFF84 FFFFFF80 FFFFFF80 FFFFFF81 00 09 02 13 43
   6F 6E 73 74 72 75 63 74 69 6E 67 48 61 6E 64 6C
   65 72 0A 02 03 04 01 07 70 61 72 73 69 6E 67 0A
   02 05 06 01 03 78 6D 6C 0A 01 07 01 05 73 63 61
   6C 61 03 00 13 03 00 0A 0E 10 02 0B 0C 0D 01 02
   09 02 0D 02 02 0D 4D 61 72 6B 75 70 48 61 6E 64
   6C 65 72 10 02 0F 10 0D 01 06 09 02 11 06 02 0B
   53 63 61 6C 61 4F 62 6A 65 63 74 08 05 13 00 FFFFFF84
   00 14 01 06 3C 69 6E 69 74 3E 14 01 15 10 02 0B
   00 08 07 17 00 FFFFFFC2 FFFFFF80 FFFFFF86 00 18 01 0A 70 72 65 73
   65 72 76 65 57 53 15 01 19 10 02 0F 1A 09 02 1B
   06 02 07 42 6F 6F 6C 65 61 6E 08 05 1D 00 FFFFFF84 00
   1E 01 04 65 6C 65 6D 14 07 1F 23 28 31 33 38 3D
   10 02 20 21 0D 01 04 09 02 22 04 02 07 4E 6F 64
   65 53 65 71 08 05 24 1C FFFFFFC0 00 25 01 03 70 6F 73
   10 02 0F 26 09 02 27 06 02 03 49 6E 74 08 05 29
   1C FFFFFFC0 00 2A 01 03 70 72 65 10 02 2B 2E 0E 02 0F
   2C 09 02 2D 06 01 06 50 72 65 64 65 66 09 02 2F
   30 02 06 53 74 72 69 6E 67 0A 02 2D 06 08 05 32
   1C FFFFFFC0 00 2A 01 05 6C 61 62 65 6C 08 05 34 1C FFFFFFC0
   00 35 01 05 61 74 74 72 73 10 02 20 36 09 02 37
   04 02 08 4D 65 74 61 44 61 74 61 08 05 39 1C FFFFFFC0
   00 3A 01 06 70 73 63 6F 70 65 10 02 20 3B 09 02
   3C 04 02 10 4E 61 6D 65 73 70 61 63 65 42 69 6E
   64 69 6E 67 08 05 3E 1C FFFFFFC0 00 1F 01 05 6E 6F 64
   65 73 08 05 40 00 FFFFFF84 00 41 01 09 70 72 6F 63 49
   6E 73 74 72 14 04 42 45 46 48 10 02 20 43 09 02
   44 04 02 09 50 72 6F 63 49 6E 73 74 72 08 05 24
   3F FFFFFFC0 00 25 08 05 47 3F FFFFFFC0 00 2A 01 06 74 61 72
   67 65 74 08 05 49 3F FFFFFFC0 00 2A 01 03 74 78 74 08
   05 4B 00 FFFFFF84 00 4C 01 07 63 6F 6D 6D 65 6E 74 14
   03 4D 50 51 10 02 20 4E 09 02 4F 04 02 07 43 6F
   6D 6D 65 6E 74 08 05 24 4A FFFFFFC0 00 25 08 05 49 4A
   FFFFFFC0 00 2A 08 05 53 00 FFFFFF84 00 54 01 09 65 6E 74 69
   74 79 52 65 66 14 03 55 58 59 10 02 20 56 09 02
   57 04 02 09 45 6E 74 69 74 79 52 65 66 08 05 24
   52 FFFFFFC0 00 25 08 05 5A 52 FFFFFFC0 00 2A 01 01 6E 08 05
   5C 00 FFFFFF84 00 5D 01 04 74 65 78 74 14 03 5E 61 62
   10 02 20 5F 09 02 60 04 02 04 54 65 78 74 08 05
   24 5B FFFFFFC0 00 25 08 05 49 5B FFFFFFC0 00 2A 
  minor version: 0
  major version: 49
  Constant pool:
const #1 = Asciz	SourceFile;
const #2 = Asciz	ConstructingHandler.scala;
const #3 = Asciz	<init>;
const #4 = Asciz	()V;
const #5 = Asciz	Code;
const #6 = Asciz	LineNumberTable;
const #7 = Asciz	scala/xml/parsing/MarkupHandler;
const #8 = class	#7;	//  scala/xml/parsing/MarkupHandler
const #9 = NameAndType	#3:#4;//  "<init>":()V
const #10 = Method	#8.#9;	//  scala/xml/parsing/MarkupHandler."<init>":()V
const #11 = Asciz	procInstr;
const #12 = Asciz	(ILjava/lang/String;Ljava/lang/String;)Lscala/xml/NodeSeq;;
const #13 = Asciz	scala/xml/parsing/ConstructingHandler;
const #14 = class	#13;	//  scala/xml/parsing/ConstructingHandler
const #15 = Asciz	(ILjava/lang/String;Ljava/lang/String;)Lscala/xml/ProcInstr;;
const #16 = NameAndType	#11:#15;//  procInstr:(ILjava/lang/String;Ljava/lang/String;)Lscala/xml/ProcInstr;
const #17 = Method	#14.#16;	//  scala/xml/parsing/ConstructingHandler.procInstr:(ILjava/lang/String;Ljava/lang/String;)Lscala/xml/ProcInstr;
const #18 = Asciz	this;
const #19 = Asciz	Lscala/xml/parsing/ConstructingHandler;;
const #20 = Asciz	pos;
const #21 = Asciz	I;
const #22 = Asciz	target;
const #23 = Asciz	Ljava/lang/String;;
const #24 = Asciz	txt;
const #25 = Asciz	LocalVariableTable;
const #26 = Asciz	comment;
const #27 = Asciz	(ILjava/lang/String;)Lscala/xml/NodeSeq;;
const #28 = Asciz	(ILjava/lang/String;)Lscala/xml/Comment;;
const #29 = NameAndType	#26:#28;//  comment:(ILjava/lang/String;)Lscala/xml/Comment;
const #30 = Method	#14.#29;	//  scala/xml/parsing/ConstructingHandler.comment:(ILjava/lang/String;)Lscala/xml/Comment;
const #31 = Asciz	entityRef;
const #32 = Asciz	(ILjava/lang/String;)Lscala/xml/EntityRef;;
const #33 = NameAndType	#31:#32;//  entityRef:(ILjava/lang/String;)Lscala/xml/EntityRef;
const #34 = Method	#14.#33;	//  scala/xml/parsing/ConstructingHandler.entityRef:(ILjava/lang/String;)Lscala/xml/EntityRef;
const #35 = Asciz	n;
const #36 = Asciz	text;
const #37 = Asciz	(ILjava/lang/String;)Lscala/xml/Text;;
const #38 = NameAndType	#36:#37;//  text:(ILjava/lang/String;)Lscala/xml/Text;
const #39 = Method	#14.#38;	//  scala/xml/parsing/ConstructingHandler.text:(ILjava/lang/String;)Lscala/xml/Text;
const #40 = Asciz	scala/xml/Text;
const #41 = class	#40;	//  scala/xml/Text
const #42 = Asciz	(Ljava/lang/String;)V;
const #43 = NameAndType	#3:#42;//  "<init>":(Ljava/lang/String;)V
const #44 = Method	#41.#43;	//  scala/xml/Text."<init>":(Ljava/lang/String;)V
const #45 = Asciz	scala/xml/EntityRef;
const #46 = class	#45;	//  scala/xml/EntityRef
const #47 = Method	#46.#43;	//  scala/xml/EntityRef."<init>":(Ljava/lang/String;)V
const #48 = Asciz	scala/xml/Comment;
const #49 = class	#48;	//  scala/xml/Comment
const #50 = Method	#49.#43;	//  scala/xml/Comment."<init>":(Ljava/lang/String;)V
const #51 = Asciz	scala/xml/ProcInstr;
const #52 = class	#51;	//  scala/xml/ProcInstr
const #53 = Asciz	(Ljava/lang/String;Ljava/lang/String;)V;
const #54 = NameAndType	#3:#53;//  "<init>":(Ljava/lang/String;Ljava/lang/String;)V
const #55 = Method	#52.#54;	//  scala/xml/ProcInstr."<init>":(Ljava/lang/String;Ljava/lang/String;)V
const #56 = Asciz	elem;
const #57 = Asciz	(ILjava/lang/String;Ljava/lang/String;Lscala/xml/MetaData;Lscala/xml/NamespaceBinding;Lscala/xml/NodeSeq;)Lscala/xml/NodeSeq;;
const #58 = Asciz	scala/xml/Elem$;
const #59 = class	#58;	//  scala/xml/Elem$
const #60 = Asciz	MODULE$;
const #61 = Asciz	Lscala/xml/Elem$;;
const #62 = NameAndType	#60:#61;//  MODULE$:Lscala/xml/Elem$;
const #63 = Field	#59.#62;	//  scala/xml/Elem$.MODULE$:Lscala/xml/Elem$;
const #64 = Asciz	apply;
const #65 = Asciz	(Ljava/lang/String;Ljava/lang/String;Lscala/xml/MetaData;Lscala/xml/NamespaceBinding;Lscala/collection/Sequence;)Lscala/xml/Elem;;
const #66 = NameAndType	#64:#65;//  apply:(Ljava/lang/String;Ljava/lang/String;Lscala/xml/MetaData;Lscala/xml/NamespaceBinding;Lscala/collection/Sequence;)Lscala/xml/Elem;
const #67 = Method	#59.#66;	//  scala/xml/Elem$.apply:(Ljava/lang/String;Ljava/lang/String;Lscala/xml/MetaData;Lscala/xml/NamespaceBinding;Lscala/collection/Sequence;)Lscala/xml/Elem;
const #68 = Asciz	pre;
const #69 = Asciz	label;
const #70 = Asciz	attrs;
const #71 = Asciz	Lscala/xml/MetaData;;
const #72 = Asciz	pscope;
const #73 = Asciz	Lscala/xml/NamespaceBinding;;
const #74 = Asciz	nodes;
const #75 = Asciz	Lscala/xml/NodeSeq;;
const #76 = Asciz	preserveWS;
const #77 = Asciz	()Z;
const #78 = Asciz	ScalaSig;
const #79 = Asciz	scala/ScalaObject;
const #80 = class	#79;	//  scala/ScalaObject

{
public scala.xml.parsing.ConstructingHandler();
  Code:
   Stack=1, Locals=1, Args_size=1
   0:	aload_0
   1:	invokespecial	#10; //Method scala/xml/parsing/MarkupHandler."<init>":()V
   4:	return
  LineNumberTable: 
   line 20: 0


public scala.xml.NodeSeq procInstr(int, java.lang.String, java.lang.String);
  Code:
   Stack=4, Locals=4, Args_size=4
   0:	aload_0
   1:	iload_1
   2:	aload_2
   3:	aload_3
   4:	invokevirtual	#17; //Method procInstr:(ILjava/lang/String;Ljava/lang/String;)Lscala/xml/ProcInstr;
   7:	areturn
  LineNumberTable: 
   line 20: 0

  LocalVariableTable: 
   Start  Length  Slot  Name   Signature
   0      8      0    this       Lscala/xml/parsing/ConstructingHandler;
   0      8      1    pos       I
   0      8      2    target       Ljava/lang/String;
   0      8      3    txt       Ljava/lang/String;


public scala.xml.NodeSeq comment(int, java.lang.String);
  Code:
   Stack=3, Locals=3, Args_size=3
   0:	aload_0
   1:	iload_1
   2:	aload_2
   3:	invokevirtual	#30; //Method comment:(ILjava/lang/String;)Lscala/xml/Comment;
   6:	areturn
  LineNumberTable: 
   line 20: 0

  LocalVariableTable: 
   Start  Length  Slot  Name   Signature
   0      7      0    this       Lscala/xml/parsing/ConstructingHandler;
   0      7      1    pos       I
   0      7      2    comment       Ljava/lang/String;


public scala.xml.NodeSeq entityRef(int, java.lang.String);
  Code:
   Stack=3, Locals=3, Args_size=3
   0:	aload_0
   1:	iload_1
   2:	aload_2
   3:	invokevirtual	#34; //Method entityRef:(ILjava/lang/String;)Lscala/xml/EntityRef;
   6:	areturn
  LineNumberTable: 
   line 20: 0

  LocalVariableTable: 
   Start  Length  Slot  Name   Signature
   0      7      0    this       Lscala/xml/parsing/ConstructingHandler;
   0      7      1    pos       I
   0      7      2    n       Ljava/lang/String;


public scala.xml.NodeSeq text(int, java.lang.String);
  Code:
   Stack=3, Locals=3, Args_size=3
   0:	aload_0
   1:	iload_1
   2:	aload_2
   3:	invokevirtual	#39; //Method text:(ILjava/lang/String;)Lscala/xml/Text;
   6:	areturn
  LineNumberTable: 
   line 20: 0

  LocalVariableTable: 
   Start  Length  Slot  Name   Signature
   0      7      0    this       Lscala/xml/parsing/ConstructingHandler;
   0      7      1    pos       I
   0      7      2    txt       Ljava/lang/String;


public scala.xml.Text text(int, java.lang.String);
  Code:
   Stack=3, Locals=3, Args_size=3
   0:	new	#41; //class scala/xml/Text
   3:	dup
   4:	aload_2
   5:	invokespecial	#44; //Method scala/xml/Text."<init>":(Ljava/lang/String;)V
   8:	areturn
  LineNumberTable: 
   line 33: 0

  LocalVariableTable: 
   Start  Length  Slot  Name   Signature
   0      9      0    this       Lscala/xml/parsing/ConstructingHandler;
   0      9      1    pos       I
   0      9      2    txt       Ljava/lang/String;


public scala.xml.EntityRef entityRef(int, java.lang.String);
  Code:
   Stack=3, Locals=3, Args_size=3
   0:	new	#46; //class scala/xml/EntityRef
   3:	dup
   4:	aload_2
   5:	invokespecial	#47; //Method scala/xml/EntityRef."<init>":(Ljava/lang/String;)V
   8:	areturn
  LineNumberTable: 
   line 32: 0

  LocalVariableTable: 
   Start  Length  Slot  Name   Signature
   0      9      0    this       Lscala/xml/parsing/ConstructingHandler;
   0      9      1    pos       I
   0      9      2    n       Ljava/lang/String;


public scala.xml.Comment comment(int, java.lang.String);
  Code:
   Stack=3, Locals=3, Args_size=3
   0:	new	#49; //class scala/xml/Comment
   3:	dup
   4:	aload_2
   5:	invokespecial	#50; //Method scala/xml/Comment."<init>":(Ljava/lang/String;)V
   8:	areturn
  LineNumberTable: 
   line 31: 0

  LocalVariableTable: 
   Start  Length  Slot  Name   Signature
   0      9      0    this       Lscala/xml/parsing/ConstructingHandler;
   0      9      1    pos       I
   0      9      2    txt       Ljava/lang/String;


public scala.xml.ProcInstr procInstr(int, java.lang.String, java.lang.String);
  Code:
   Stack=4, Locals=4, Args_size=4
   0:	new	#52; //class scala/xml/ProcInstr
   3:	dup
   4:	aload_2
   5:	aload_3
   6:	invokespecial	#55; //Method scala/xml/ProcInstr."<init>":(Ljava/lang/String;Ljava/lang/String;)V
   9:	areturn
  LineNumberTable: 
   line 29: 0

  LocalVariableTable: 
   Start  Length  Slot  Name   Signature
   0      10      0    this       Lscala/xml/parsing/ConstructingHandler;
   0      10      1    pos       I
   0      10      2    target       Ljava/lang/String;
   0      10      3    txt       Ljava/lang/String;


public scala.xml.NodeSeq elem(int, java.lang.String, java.lang.String, scala.xml.MetaData, scala.xml.NamespaceBinding, scala.xml.NodeSeq);
  Code:
   Stack=6, Locals=7, Args_size=7
   0:	getstatic	#63; //Field scala/xml/Elem$.MODULE$:Lscala/xml/Elem$;
   3:	aload_2
   4:	aload_3
   5:	aload	4
   7:	aload	5
   9:	aload	6
   11:	invokevirtual	#67; //Method scala/xml/Elem$.apply:(Ljava/lang/String;Ljava/lang/String;Lscala/xml/MetaData;Lscala/xml/NamespaceBinding;Lscala/collection/Sequence;)Lscala/xml/Elem;
   14:	areturn
  LineNumberTable: 
   line 26: 0

  LocalVariableTable: 
   Start  Length  Slot  Name   Signature
   0      15      0    this       Lscala/xml/parsing/ConstructingHandler;
   0      15      1    pos       I
   0      15      2    pre       Ljava/lang/String;
   0      15      3    label       Ljava/lang/String;
   0      15      4    attrs       Lscala/xml/MetaData;
   0      15      5    pscope       Lscala/xml/NamespaceBinding;
   0      15      6    nodes       Lscala/xml/NodeSeq;


public abstract boolean preserveWS();

}

