Compiled from "ConstructingHandler.scala"
public abstract class scala.xml.parsing.ConstructingHandler extends scala.xml.parsing.MarkupHandler implements scala.ScalaObject
  SourceFile: "ConstructingHandler.scala"
  ScalaSig: length = 0x27C
   05 00 63 06 08 01 02 FFFFFF84 FFFFFF80 FFFFFF80 FFFFFF81 00 09 02 13 43
   6F 6E 73 74 72 75 63 74 69 6E 67 48 61 6E 64 6C
   65 72 0A 02 03 04 01 07 70 61 72 73 69 6E 67 0A
   02 05 06 01 03 78 6D 6C 0A 01 07 01 05 73 63 61
   6C 61 03 00 13 03 00 0A 0E 10 02 0B 0C 0D 01 02
   09 02 0D 02 02 0D 4D 61 72 6B 75 70 48 61 6E 64
   6C 65 72 10 02 0F 10 0D 01 06 09 02 11 06 02 0B
   53 63 61 6C 61 4F 62 6A 65 63 74 08 05 13 00 FFFFFF84
   00 14 01 06 3C 69 6E 69 74 3E 14 01 15 10 02 0B
   00 08 07 17 00 FFFFFFC2 FFFFFF80 FFFFFF86 00 18 01 0A 70 72 65 73
   65 72 76 65 57 53 15 01 19 10 02 0F 1A 09 02 1B
   06 02 07 42 6F 6F 6C 65 61 6E 08 05 1D 00 FFFFFF84 00
   1E 01 04 65 6C 65 6D 14 07 1F 23 28 31 33 38 3D
   10 02 20 21 0D 01 04 09 02 22 04 02 07 4E 6F 64
   65 53 65 71 08 05 24 1C FFFFFFC0 00 25 01 03 70 6F 73
   10 02 0F 26 09 02 27 06 02 03 49 6E 74 08 05 29
   1C FFFFFFC0 00 2A 01 03 70 72 65 10 02 2B 2E 0E 02 0F
   2C 09 02 2D 06 01 06 50 72 65 64 65 66 09 02 2F
   30 02 06 53 74 72 69 6E 67 0A 02 2D 06 08 05 32
   1C FFFFFFC0 00 2A 01 05 6C 61 62 65 6C 08 05 34 1C FFFFFFC0
   00 35 01 05 61 74 74 72 73 10 02 20 36 09 02 37
   04 02 08 4D 65 74 61 44 61 74 61 08 05 39 1C FFFFFFC0
   00 3A 01 06 70 73 63 6F 70 65 10 02 20 3B 09 02
   3C 04 02 10 4E 61 6D 65 73 70 61 63 65 42 69 6E
   64 69 6E 67 08 05 3E 1C FFFFFFC0 00 1F 01 05 6E 6F 64
   65 73 08 05 40 00 FFFFFF84 00 41 01 09 70 72 6F 63 49
   6E 73 74 72 14 04 42 45 46 48 10 02 20 43 09 02
   44 04 02 09 50 72 6F 63 49 6E 73 74 72 08 05 24
   3F FFFFFFC0 00 25 08 05 47 3F FFFFFFC0 00 2A 01 06 74 61 72
   67 65 74 08 05 49 3F FFFFFFC0 00 2A 01 03 74 78 74 08
   05 4B 00 FFFFFF84 00 4C 01 07 63 6F 6D 6D 65 6E 74 14
   03 4D 50 51 10 02 20 4E 09 02 4F 04 02 07 43 6F
   6D 6D 65 6E 74 08 05 24 4A FFFFFFC0 00 25 08 05 49 4A
   FFFFFFC0 00 2A 08 05 53 00 FFFFFF84 00 54 01 09 65 6E 74 69
   74 79 52 65 66 14 03 55 58 59 10 02 20 56 09 02
   57 04 02 09 45 6E 74 69 74 79 52 65 66 08 05 24
   52 FFFFFFC0 00 25 08 05 5A 52 FFFFFFC0 00 2A 01 01 6E 08 05
   5C 00 FFFFFF84 00 5D 01 04 74 65 78 74 14 03 5E 61 62
   10 02 20 5F 09 02 60 04 02 04 54 65 78 74 08 05
   24 5B FFFFFFC0 00 25 08 05 49 5B FFFFFFC0 00 2A 
  minor version: 0
  major version: 49
  Constant pool:
Asciz	SourceFile;
Asciz	ConstructingHandler.scala;
Asciz	<init>;
Asciz	()V;
Asciz	Code;
Asciz	LineNumberTable;
Asciz	scala/xml/parsing/MarkupHandler;
class	scala/xml/parsing/MarkupHandler
NameAndType	"<init>":()V
Method	scala/xml/parsing/MarkupHandler."<init>":()V
Asciz	procInstr;
Asciz	(ILjava/lang/String;Ljava/lang/String;)Lscala/xml/NodeSeq;;
Asciz	scala/xml/parsing/ConstructingHandler;
class	scala/xml/parsing/ConstructingHandler
Asciz	(ILjava/lang/String;Ljava/lang/String;)Lscala/xml/ProcInstr;;
NameAndType	procInstr:(ILjava/lang/String;Ljava/lang/String;)Lscala/xml/ProcInstr;
Method	scala/xml/parsing/ConstructingHandler.procInstr:(ILjava/lang/String;Ljava/lang/String;)Lscala/xml/ProcInstr;
Asciz	this;
Asciz	Lscala/xml/parsing/ConstructingHandler;;
Asciz	pos;
Asciz	I;
Asciz	target;
Asciz	Ljava/lang/String;;
Asciz	txt;
Asciz	LocalVariableTable;
Asciz	comment;
Asciz	(ILjava/lang/String;)Lscala/xml/NodeSeq;;
Asciz	(ILjava/lang/String;)Lscala/xml/Comment;;
NameAndType	comment:(ILjava/lang/String;)Lscala/xml/Comment;
Method	scala/xml/parsing/ConstructingHandler.comment:(ILjava/lang/String;)Lscala/xml/Comment;
Asciz	entityRef;
Asciz	(ILjava/lang/String;)Lscala/xml/EntityRef;;
NameAndType	entityRef:(ILjava/lang/String;)Lscala/xml/EntityRef;
Method	scala/xml/parsing/ConstructingHandler.entityRef:(ILjava/lang/String;)Lscala/xml/EntityRef;
Asciz	n;
Asciz	text;
Asciz	(ILjava/lang/String;)Lscala/xml/Text;;
NameAndType	text:(ILjava/lang/String;)Lscala/xml/Text;
Method	scala/xml/parsing/ConstructingHandler.text:(ILjava/lang/String;)Lscala/xml/Text;
Asciz	scala/xml/Text$;
class	scala/xml/Text$
Asciz	MODULE$;
Asciz	Lscala/xml/Text$;;
NameAndType	MODULE$:Lscala/xml/Text$;
Field	scala/xml/Text$.MODULE$:Lscala/xml/Text$;
Asciz	apply;
Asciz	(Ljava/lang/String;)Lscala/xml/Text;;
NameAndType	apply:(Ljava/lang/String;)Lscala/xml/Text;
Method	scala/xml/Text$.apply:(Ljava/lang/String;)Lscala/xml/Text;
Asciz	scala/xml/EntityRef;
class	scala/xml/EntityRef
Asciz	(Ljava/lang/String;)V;
NameAndType	"<init>":(Ljava/lang/String;)V
Method	scala/xml/EntityRef."<init>":(Ljava/lang/String;)V
Asciz	scala/xml/Comment;
class	scala/xml/Comment
Method	scala/xml/Comment."<init>":(Ljava/lang/String;)V
Asciz	scala/xml/ProcInstr;
class	scala/xml/ProcInstr
Asciz	(Ljava/lang/String;Ljava/lang/String;)V;
NameAndType	"<init>":(Ljava/lang/String;Ljava/lang/String;)V
Method	scala/xml/ProcInstr."<init>":(Ljava/lang/String;Ljava/lang/String;)V
Asciz	elem;
Asciz	(ILjava/lang/String;Ljava/lang/String;Lscala/xml/MetaData;Lscala/xml/NamespaceBinding;Lscala/xml/NodeSeq;)Lscala/xml/NodeSeq;;
Asciz	scala/xml/Elem$;
class	scala/xml/Elem$
Asciz	Lscala/xml/Elem$;;
NameAndType	MODULE$:Lscala/xml/Elem$;
Field	scala/xml/Elem$.MODULE$:Lscala/xml/Elem$;
Asciz	(Ljava/lang/String;Ljava/lang/String;Lscala/xml/MetaData;Lscala/xml/NamespaceBinding;Lscala/collection/Seq;)Lscala/xml/Elem;;
NameAndType	apply:(Ljava/lang/String;Ljava/lang/String;Lscala/xml/MetaData;Lscala/xml/NamespaceBinding;Lscala/collection/Seq;)Lscala/xml/Elem;
Method	scala/xml/Elem$.apply:(Ljava/lang/String;Ljava/lang/String;Lscala/xml/MetaData;Lscala/xml/NamespaceBinding;Lscala/collection/Seq;)Lscala/xml/Elem;
Asciz	pre;
Asciz	label;
Asciz	attrs;
Asciz	Lscala/xml/MetaData;;
Asciz	pscope;
Asciz	Lscala/xml/NamespaceBinding;;
Asciz	nodes;
Asciz	Lscala/xml/NodeSeq;;
Asciz	preserveWS;
Asciz	()Z;
Asciz	ScalaSig;
Asciz	scala/ScalaObject;
class	scala/ScalaObject

{
public scala.xml.parsing.ConstructingHandler();
  Signature: ()V
  Code:
   Stack=1, Locals=1, Args_size=1
	aload_0
	invokespecial	Method scala/xml/parsing/MarkupHandler."<init>":()V
	return
  Labels:

public scala.xml.NodeSeq procInstr(int, java.lang.String, java.lang.String);
  Signature: (ILjava/lang/String;Ljava/lang/String;)Lscala/xml/NodeSeq;
  Code:
   Stack=4, Locals=4, Args_size=4
	aload_0
	iload_1
	aload_2
	aload_3
	invokevirtual	Method procInstr:(ILjava/lang/String;Ljava/lang/String;)Lscala/xml/ProcInstr;
	areturn
  Labels:
  LocalVariableTable: 
   Start  Length  Slot  Name   Signature
   0      8      0    this       Lscala/xml/parsing/ConstructingHandler;
   0      8      1    pos       I
   0      8      2    target       Ljava/lang/String;
   0      8      3    txt       Ljava/lang/String;


public scala.xml.NodeSeq comment(int, java.lang.String);
  Signature: (ILjava/lang/String;)Lscala/xml/NodeSeq;
  Code:
   Stack=3, Locals=3, Args_size=3
	aload_0
	iload_1
	aload_2
	invokevirtual	Method comment:(ILjava/lang/String;)Lscala/xml/Comment;
	areturn
  Labels:
  LocalVariableTable: 
   Start  Length  Slot  Name   Signature
   0      7      0    this       Lscala/xml/parsing/ConstructingHandler;
   0      7      1    pos       I
   0      7      2    comment       Ljava/lang/String;


public scala.xml.NodeSeq entityRef(int, java.lang.String);
  Signature: (ILjava/lang/String;)Lscala/xml/NodeSeq;
  Code:
   Stack=3, Locals=3, Args_size=3
	aload_0
	iload_1
	aload_2
	invokevirtual	Method entityRef:(ILjava/lang/String;)Lscala/xml/EntityRef;
	areturn
  Labels:
  LocalVariableTable: 
   Start  Length  Slot  Name   Signature
   0      7      0    this       Lscala/xml/parsing/ConstructingHandler;
   0      7      1    pos       I
   0      7      2    n       Ljava/lang/String;


public scala.xml.NodeSeq text(int, java.lang.String);
  Signature: (ILjava/lang/String;)Lscala/xml/NodeSeq;
  Code:
   Stack=3, Locals=3, Args_size=3
	aload_0
	iload_1
	aload_2
	invokevirtual	Method text:(ILjava/lang/String;)Lscala/xml/Text;
	areturn
  Labels:
  LocalVariableTable: 
   Start  Length  Slot  Name   Signature
   0      7      0    this       Lscala/xml/parsing/ConstructingHandler;
   0      7      1    pos       I
   0      7      2    txt       Ljava/lang/String;


public scala.xml.Text text(int, java.lang.String);
  Signature: (ILjava/lang/String;)Lscala/xml/Text;
  Code:
   Stack=2, Locals=3, Args_size=3
	getstatic	Field scala/xml/Text$.MODULE$:Lscala/xml/Text$;
	aload_2
	invokevirtual	Method scala/xml/Text$.apply:(Ljava/lang/String;)Lscala/xml/Text;
	areturn
  Labels:
  LocalVariableTable: 
   Start  Length  Slot  Name   Signature
   0      8      0    this       Lscala/xml/parsing/ConstructingHandler;
   0      8      1    pos       I
   0      8      2    txt       Ljava/lang/String;


public scala.xml.EntityRef entityRef(int, java.lang.String);
  Signature: (ILjava/lang/String;)Lscala/xml/EntityRef;
  Code:
   Stack=3, Locals=3, Args_size=3
	new	class scala/xml/EntityRef
	dup
	aload_2
	invokespecial	Method scala/xml/EntityRef."<init>":(Ljava/lang/String;)V
	areturn
  Labels:
  LocalVariableTable: 
   Start  Length  Slot  Name   Signature
   0      9      0    this       Lscala/xml/parsing/ConstructingHandler;
   0      9      1    pos       I
   0      9      2    n       Ljava/lang/String;


public scala.xml.Comment comment(int, java.lang.String);
  Signature: (ILjava/lang/String;)Lscala/xml/Comment;
  Code:
   Stack=3, Locals=3, Args_size=3
	new	class scala/xml/Comment
	dup
	aload_2
	invokespecial	Method scala/xml/Comment."<init>":(Ljava/lang/String;)V
	areturn
  Labels:
  LocalVariableTable: 
   Start  Length  Slot  Name   Signature
   0      9      0    this       Lscala/xml/parsing/ConstructingHandler;
   0      9      1    pos       I
   0      9      2    txt       Ljava/lang/String;


public scala.xml.ProcInstr procInstr(int, java.lang.String, java.lang.String);
  Signature: (ILjava/lang/String;Ljava/lang/String;)Lscala/xml/ProcInstr;
  Code:
   Stack=4, Locals=4, Args_size=4
	new	class scala/xml/ProcInstr
	dup
	aload_2
	aload_3
	invokespecial	Method scala/xml/ProcInstr."<init>":(Ljava/lang/String;Ljava/lang/String;)V
	areturn
  Labels:
  LocalVariableTable: 
   Start  Length  Slot  Name   Signature
   0      10      0    this       Lscala/xml/parsing/ConstructingHandler;
   0      10      1    pos       I
   0      10      2    target       Ljava/lang/String;
   0      10      3    txt       Ljava/lang/String;


public scala.xml.NodeSeq elem(int, java.lang.String, java.lang.String, scala.xml.MetaData, scala.xml.NamespaceBinding, scala.xml.NodeSeq);
  Signature: (ILjava/lang/String;Ljava/lang/String;Lscala/xml/MetaData;Lscala/xml/NamespaceBinding;Lscala/xml/NodeSeq;)Lscala/xml/NodeSeq;
  Code:
   Stack=6, Locals=7, Args_size=7
	getstatic	Field scala/xml/Elem$.MODULE$:Lscala/xml/Elem$;
	aload_2
	aload_3
	aload	4
	aload	5
	aload	6
	invokevirtual	Method scala/xml/Elem$.apply:(Ljava/lang/String;Ljava/lang/String;Lscala/xml/MetaData;Lscala/xml/NamespaceBinding;Lscala/collection/Seq;)Lscala/xml/Elem;
	areturn
  Labels:
  LocalVariableTable: 
   Start  Length  Slot  Name   Signature
   0      15      0    this       Lscala/xml/parsing/ConstructingHandler;
   0      15      1    pos       I
   0      15      2    pre       Ljava/lang/String;
   0      15      3    label       Ljava/lang/String;
   0      15      4    attrs       Lscala/xml/MetaData;
   0      15      5    pscope       Lscala/xml/NamespaceBinding;
   0      15      6    nodes       Lscala/xml/NodeSeq;


public abstract boolean preserveWS();
  Signature: ()Z

}

