Compiled from "FactoryAdapter.scala"
public abstract class scala.xml.parsing.FactoryAdapter extends org.xml.sax.helpers.DefaultHandler implements scala.xml.factory.XMLLoader,scala.ScalaObject
  SourceFile: "FactoryAdapter.scala"
  Signature: length = 0x2
   01 FFFFFFBF 
  ScalaSig: length = 0x709
   05 00 FFFFFF81 6B 06 08 01 02 FFFFFF84 FFFFFF80 FFFFFF80 FFFFFF81 00 09 02 0E
   46 61 63 74 6F 72 79 41 64 61 70 74 65 72 0A 02
   03 04 01 07 70 61 72 73 69 6E 67 0A 02 05 06 01
   03 78 6D 6C 0A 01 07 01 05 73 63 61 6C 61 03 00
   13 04 00 0A 15 1F 10 02 0B 13 0D 01 0C 0A 02 0D
   0E 01 07 68 65 6C 70 65 72 73 0A 02 0F 10 01 03
   73 61 78 0A 02 05 11 0A 01 12 01 03 6F 72 67 09
   02 14 0C 02 0E 44 65 66 61 75 6C 74 48 61 6E 64
   6C 65 72 10 03 16 19 1B 0D 01 17 0A 02 18 04 01
   07 66 61 63 74 6F 72 79 09 02 1A 17 02 09 58 4D
   4C 4C 6F 61 64 65 72 10 02 1C 1D 0D 01 04 09 02
   1E 04 02 04 4E 6F 64 65 10 02 20 21 0D 01 06 09
   02 22 06 02 0B 53 63 61 6C 61 4F 62 6A 65 63 74
   08 05 24 00 FFFFFF84 00 25 01 06 3C 69 6E 69 74 3E 14
   01 26 10 02 27 00 0D 01 02 08 07 29 00 FFFFFFC0 FFFFFF80 FFFFFF84
   00 2A 01 08 72 6F 6F 74 45 6C 65 6D 15 01 1B 08
   07 2C 00 FFFFFFC0 FFFFFF80 FFFFFF84 00 2D 01 0C 72 6F 6F 74 45 6C
   65 6D 5F 24 65 71 14 02 2E 31 10 02 20 2F 09 02
   30 06 02 04 55 6E 69 74 08 07 32 2B FFFFFF81 FFFFFF80 FFFFFFC0 00
   1B 01 03 78 24 31 08 06 34 00 FFFFFFA0 FFFFFFA0 04 1B 01 09
   72 6F 6F 74 45 6C 65 6D 20 08 07 36 00 FFFFFFC2 FFFFFF80 FFFFFF84
   00 37 01 06 62 75 66 66 65 72 15 01 38 10 02 39
   3E 0D 01 3A 0A 02 3B 3C 01 07 6D 75 74 61 62 6C
   65 0A 02 3D 06 01 0A 63 6F 6C 6C 65 63 74 69 6F
   6E 09 02 3F 3A 02 0D 53 74 72 69 6E 67 42 75 69
   6C 64 65 72 08 06 41 00 FFFFFFA0 FFFFFF80 04 38 01 07 62 75
   66 66 65 72 20 08 07 43 00 FFFFFFC2 FFFFFF80 FFFFFF84 00 44 01 0B
   61 74 74 72 69 62 53 74 61 63 6B 15 01 45 10 03
   39 46 48 09 02 47 3A 02 05 53 74 61 63 6B 10 02
   1C 49 09 02 4A 04 02 08 4D 65 74 61 44 61 74 61
   08 06 4C 00 FFFFFFA0 FFFFFF80 04 45 01 0C 61 74 74 72 69 62
   53 74 61 63 6B 20 08 07 4E 00 FFFFFFC2 FFFFFF80 FFFFFF84 00 4F 01
   06 68 53 74 61 63 6B 15 01 50 10 03 39 46 1B 08
   06 52 00 FFFFFFA0 FFFFFF80 04 50 01 07 68 53 74 61 63 6B 20
   08 07 54 00 FFFFFFC2 FFFFFF80 FFFFFF84 00 55 01 08 74 61 67 53 74
   61 63 6B 15 01 56 10 03 39 46 57 10 02 58 5B 0E
   02 20 59 09 02 5A 06 01 06 50 72 65 64 65 66 09
   02 5C 5D 02 06 53 74 72 69 6E 67 0A 02 5A 06 08
   06 5F 00 FFFFFFA0 FFFFFF80 04 56 01 09 74 61 67 53 74 61 63
   6B 20 08 07 61 00 FFFFFFC0 FFFFFF80 FFFFFF84 00 62 01 0A 73 63 6F
   70 65 53 74 61 63 6B 15 01 63 10 03 39 46 64 10
   02 1C 65 09 02 66 04 02 10 4E 61 6D 65 73 70 61
   63 65 42 69 6E 64 69 6E 67 08 07 68 00 FFFFFFC0 FFFFFF80 FFFFFF84
   00 69 01 0E 73 63 6F 70 65 53 74 61 63 6B 5F 24
   65 71 14 02 2E 6A 08 07 32 67 FFFFFF81 FFFFFF80 FFFFFFC0 00 63 08
   06 6C 00 FFFFFFA0 FFFFFFA0 04 63 01 0B 73 63 6F 70 65 53 74
   61 63 6B 20 08 07 6E 00 FFFFFFC0 FFFFFF80 FFFFFF84 00 6F 01 06 63
   75 72 54 61 67 15 01 57 08 07 71 00 FFFFFFC0 FFFFFF80 FFFFFF84 00
   72 01 0A 63 75 72 54 61 67 5F 24 65 71 14 02 2E
   73 08 07 32 70 FFFFFF81 FFFFFF80 FFFFFFC0 00 57 08 06 75 00 FFFFFFA0 FFFFFFA0
   04 57 01 07 63 75 72 54 61 67 20 08 07 77 00 FFFFFFC0
   FFFFFF80 FFFFFF84 00 78 01 07 63 61 70 74 75 72 65 15 01 79
   10 02 20 7A 09 02 7B 06 02 07 42 6F 6F 6C 65 61
   6E 08 07 7D 00 FFFFFFC0 FFFFFF80 FFFFFF84 00 7E 01 0B 63 61 70 74
   75 72 65 5F 24 65 71 14 02 2E 7F 08 07 32 7C FFFFFF81
   FFFFFF80 FFFFFFC0 00 79 08 07 FFFFFF81 01 00 FFFFFFA0 FFFFFFA0 04 79 01 08 63
   61 70 74 75 72 65 20 08 07 FFFFFF81 03 00 FFFFFF86 00 FFFFFF81 04
   01 10 6E 6F 64 65 43 6F 6E 74 61 69 6E 73 54 65
   78 74 14 03 79 FFFFFF81 05 08 07 FFFFFF81 06 FFFFFF81 02 FFFFFFC0 00 57
   01 09 6C 6F 63 61 6C 4E 61 6D 65 08 07 FFFFFF81 08 00
   FFFFFF86 00 FFFFFF81 09 01 0A 63 72 65 61 74 65 4E 6F 64 65
   14 0B 1B FFFFFF81 0A FFFFFF81 0C FFFFFF81 0E FFFFFF81 10 FFFFFF81 12 08 07 FFFFFF81
   0B FFFFFF81 07 FFFFFFC0 00 57 01 03 70 72 65 08 07 FFFFFF81 0D FFFFFF81
   07 FFFFFFC0 00 57 01 08 65 6C 65 6D 4E 61 6D 65 08 07
   FFFFFF81 0F FFFFFF81 07 FFFFFFC0 00 48 01 07 61 74 74 72 69 62 73
   08 07 FFFFFF81 11 FFFFFF81 07 FFFFFFC0 00 64 01 05 73 63 6F 70 65
   08 08 FFFFFF81 13 FFFFFF81 07 FFFFFFC0 00 FFFFFF81 14 01 06 63 68 49 74
   65 72 10 05 FFFFFF81 15 FFFFFF81 18 1B 0D 02 FFFFFF81 16 0A 03 FFFFFF81
   17 3C 01 09 69 6D 6D 75 74 61 62 6C 65 09 04 FFFFFF81
   19 FFFFFF81 16 02 04 4C 69 73 74 08 07 FFFFFF81 1B 00 FFFFFF86 00
   FFFFFF81 1C 01 0A 63 72 65 61 74 65 54 65 78 74 14 04
   FFFFFF81 1D FFFFFF81 20 10 03 1C FFFFFF81 1E 09 03 FFFFFF81 1F 04 02 04
   54 65 78 74 08 07 FFFFFF81 21 FFFFFF81 1A FFFFFFC0 00 57 01 04 74
   65 78 74 08 07 FFFFFF81 23 00 FFFFFF86 00 FFFFFF81 24 01 0F 63 72
   65 61 74 65 50 72 6F 63 49 6E 73 74 72 14 06 FFFFFF81
   25 FFFFFF81 2C FFFFFF81 2E 10 06 FFFFFF81 26 FFFFFF81 27 FFFFFF81 29 0D 01 3C
   09 03 FFFFFF81 28 3C 02 03 53 65 71 10 03 1C FFFFFF81 2A 09
   03 FFFFFF81 2B 04 02 09 50 72 6F 63 49 6E 73 74 72 08
   07 FFFFFF81 2D FFFFFF81 22 FFFFFFC0 00 57 01 06 74 61 72 67 65 74
   08 07 FFFFFF81 2F FFFFFF81 22 FFFFFFC0 00 57 01 04 64 61 74 61 08
   08 FFFFFF81 31 00 FFFFFFC2 FFFFFF80 FFFFFF84 00 78 01 13 6E 6F 72 6D 61
   6C 69 7A 65 57 68 69 74 65 73 70 61 63 65 08 07
   FFFFFF81 33 00 FFFFFFA0 FFFFFF80 04 79 01 14 6E 6F 72 6D 61 6C 69
   7A 65 57 68 69 74 65 73 70 61 63 65 20 08 07 FFFFFF81
   35 00 FFFFFF84 20 FFFFFF81 36 01 0A 63 68 61 72 61 63 74 65
   72 73 14 07 2E FFFFFF81 37 FFFFFF81 3F FFFFFF81 44 08 08 FFFFFF81 38 FFFFFF81
   34 FFFFFFC0 00 FFFFFF81 39 01 02 63 68 10 05 20 FFFFFF81 3A FFFFFF81 3C
   09 03 FFFFFF81 3B 06 02 05 41 72 72 61 79 10 03 20 FFFFFF81
   3D 09 03 FFFFFF81 3E 06 02 04 43 68 61 72 08 08 FFFFFF81 40
   FFFFFF81 34 FFFFFFC0 00 FFFFFF81 41 01 06 6F 66 66 73 65 74 10 03
   20 FFFFFF81 42 09 03 FFFFFF81 43 06 02 03 49 6E 74 08 08 FFFFFF81
   45 FFFFFF81 34 FFFFFFC0 00 FFFFFF81 41 01 06 6C 65 6E 67 74 68 08
   07 FFFFFF81 47 00 FFFFFF84 04 FFFFFF81 48 01 09 73 70 6C 69 74 4E
   61 6D 65 14 04 FFFFFF81 49 FFFFFF81 4C 10 05 20 FFFFFF81 4A 57 57
   09 03 FFFFFF81 4B 06 02 06 54 75 70 6C 65 32 08 07 FFFFFF81
   4D FFFFFF81 46 FFFFFFC0 00 57 01 01 73 08 07 FFFFFF81 4F 00 FFFFFF84 20
   FFFFFF81 50 01 0C 73 74 61 72 74 45 6C 65 6D 65 6E 74
   14 09 2E FFFFFF81 51 FFFFFF81 53 FFFFFF81 55 FFFFFF81 57 08 07 FFFFFF81 52 FFFFFF81
   4E FFFFFFC0 00 57 01 03 75 72 69 08 07 FFFFFF81 54 FFFFFF81 4E FFFFFFC0
   00 57 01 0A 5F 6C 6F 63 61 6C 4E 61 6D 65 08 07
   FFFFFF81 56 FFFFFF81 4E FFFFFFC0 00 57 01 05 71 6E 61 6D 65 08 08
   FFFFFF81 58 FFFFFF81 4E FFFFFFC0 00 FFFFFF81 59 01 0A 61 74 74 72 69 62
   75 74 65 73 10 04 FFFFFF81 5A FFFFFF81 5B 0D 01 0E 09 03 FFFFFF81
   5C 0E 02 0A 41 74 74 72 69 62 75 74 65 73 08 07
   FFFFFF81 5E 00 FFFFFF84 00 FFFFFF81 5F 01 0B 63 61 70 74 75 72 65
   54 65 78 74 14 01 2E 08 07 FFFFFF81 61 00 FFFFFF84 20 FFFFFF81 62
   01 0A 65 6E 64 45 6C 65 6D 65 6E 74 14 07 2E FFFFFF81
   63 FFFFFF81 64 FFFFFF81 65 08 07 FFFFFF81 52 FFFFFF81 60 FFFFFFC0 00 57 08 07
   FFFFFF81 54 FFFFFF81 60 FFFFFFC0 00 57 08 07 FFFFFF81 56 FFFFFF81 60 FFFFFFC0 00 57
   08 07 FFFFFF81 67 00 FFFFFF84 20 FFFFFF81 68 01 15 70 72 6F 63 65
   73 73 69 6E 67 49 6E 73 74 72 75 63 74 69 6F 6E
   14 05 2E FFFFFF81 69 FFFFFF81 6A 08 07 FFFFFF81 2D FFFFFF81 66 FFFFFFC0 00 57
   08 07 FFFFFF81 2F FFFFFF81 66 FFFFFFC0 00 57 
  InnerClass: 
   public abstract ByOne=class scala/collection/immutable/Range$ByOne of class scala/collection/immutable/Range
   public ofChar=class scala/collection/mutable/ArrayOps$ofChar of class scala/collection/mutable/ArrayOps
   public final $anon$13=class scala/collection/Iterator$$anon$13 of class scala/collection/Iterator
   public final $anonfun$2=class scala/xml/parsing/FactoryAdapter$$anonfun$2 of class scala/xml/parsing/FactoryAdapter
   public final $anonfun$1=class scala/xml/parsing/FactoryAdapter$$anonfun$1 of class scala/xml/parsing/FactoryAdapter
   public final $anonfun$characters$1=class scala/xml/parsing/FactoryAdapter$$anonfun$characters$1 of class scala/xml/parsing/FactoryAdapter
   public final $anonfun$startElement$1=class scala/xml/parsing/FactoryAdapter$$anonfun$startElement$1 of class scala/xml/parsing/FactoryAdapter
  minor version: 0
  major version: 49
  Constant pool:
Asciz	SourceFile;
Asciz	FactoryAdapter.scala;
Asciz	scala$xml$factory$XMLLoader$$saxFactory;
Asciz	Ljavax/xml/parsers/SAXParserFactory;;
Asciz	normalizeWhitespace;
Asciz	Z;
Asciz	capture;
Asciz	curTag;
Asciz	Ljava/lang/String;;
Asciz	scopeStack;
Asciz	Lscala/collection/mutable/Stack;;
Asciz	Lscala/collection/mutable/Stack<Lscala/xml/NamespaceBinding;>;;
Asciz	Signature;
Asciz	tagStack;
Asciz	Lscala/collection/mutable/Stack<Ljava/lang/String;>;;
Asciz	hStack;
Asciz	Lscala/collection/mutable/Stack<Lscala/xml/Node;>;;
Asciz	attribStack;
Asciz	Lscala/collection/mutable/Stack<Lscala/xml/MetaData;>;;
Asciz	buffer;
Asciz	Lscala/collection/mutable/StringBuilder;;
Asciz	rootElem;
Asciz	Lscala/xml/Node;;
Asciz	<init>;
Asciz	()V;
Asciz	Code;
Asciz	LineNumberTable;
Asciz	org/xml/sax/helpers/DefaultHandler;
class	org/xml/sax/helpers/DefaultHandler
NameAndType	"<init>":()V
Method	org/xml/sax/helpers/DefaultHandler."<init>":()V
Asciz	scala/xml/factory/XMLLoader$class;
class	scala/xml/factory/XMLLoader$class
Asciz	$init$;
Asciz	(Lscala/xml/factory/XMLLoader;)V;
NameAndType	$init$:(Lscala/xml/factory/XMLLoader;)V
Method	scala/xml/factory/XMLLoader$class.$init$:(Lscala/xml/factory/XMLLoader;)V
Asciz	scala/xml/parsing/FactoryAdapter;
class	scala/xml/parsing/FactoryAdapter
NameAndType	rootElem:Lscala/xml/Node;
Field	scala/xml/parsing/FactoryAdapter.rootElem:Lscala/xml/Node;
Asciz	scala/collection/mutable/StringBuilder;
class	scala/collection/mutable/StringBuilder
Method	scala/collection/mutable/StringBuilder."<init>":()V
NameAndType	buffer:Lscala/collection/mutable/StringBuilder;
Field	scala/xml/parsing/FactoryAdapter.buffer:Lscala/collection/mutable/StringBuilder;
Asciz	scala/collection/mutable/Stack;
class	scala/collection/mutable/Stack
Method	scala/collection/mutable/Stack."<init>":()V
NameAndType	attribStack:Lscala/collection/mutable/Stack;
Field	scala/xml/parsing/FactoryAdapter.attribStack:Lscala/collection/mutable/Stack;
NameAndType	hStack:Lscala/collection/mutable/Stack;
Field	scala/xml/parsing/FactoryAdapter.hStack:Lscala/collection/mutable/Stack;
NameAndType	tagStack:Lscala/collection/mutable/Stack;
Field	scala/xml/parsing/FactoryAdapter.tagStack:Lscala/collection/mutable/Stack;
NameAndType	scopeStack:Lscala/collection/mutable/Stack;
Field	scala/xml/parsing/FactoryAdapter.scopeStack:Lscala/collection/mutable/Stack;
NameAndType	curTag:Ljava/lang/String;
Field	scala/xml/parsing/FactoryAdapter.curTag:Ljava/lang/String;
NameAndType	capture:Z
Field	scala/xml/parsing/FactoryAdapter.capture:Z
NameAndType	normalizeWhitespace:Z
Field	scala/xml/parsing/FactoryAdapter.normalizeWhitespace:Z
Asciz	processingInstruction;
Asciz	(Ljava/lang/String;Ljava/lang/String;)V;
Asciz	()Lscala/collection/mutable/Stack;;
NameAndType	hStack:()Lscala/collection/mutable/Stack;
Method	scala/xml/parsing/FactoryAdapter.hStack:()Lscala/collection/mutable/Stack;
Asciz	createProcInstr;
Asciz	(Ljava/lang/String;Ljava/lang/String;)Lscala/collection/Seq;;
NameAndType	createProcInstr:(Ljava/lang/String;Ljava/lang/String;)Lscala/collection/Seq;
Method	scala/xml/parsing/FactoryAdapter.createProcInstr:(Ljava/lang/String;Ljava/lang/String;)Lscala/collection/Seq;
Asciz	pushAll;
Asciz	(Lscala/collection/Traversable;)Lscala/collection/mutable/Stack;;
NameAndType	pushAll:(Lscala/collection/Traversable;)Lscala/collection/mutable/Stack;
Method	scala/collection/mutable/Stack.pushAll:(Lscala/collection/Traversable;)Lscala/collection/mutable/Stack;
Asciz	this;
Asciz	Lscala/xml/parsing/FactoryAdapter;;
Asciz	target;
Asciz	data;
Asciz	LocalVariableTable;
Asciz	endElement;
Asciz	(Ljava/lang/String;Ljava/lang/String;Ljava/lang/String;)V;
Asciz	captureText;
NameAndType	captureText:()V
Method	scala/xml/parsing/FactoryAdapter.captureText:()V
NameAndType	attribStack:()Lscala/collection/mutable/Stack;
Method	scala/xml/parsing/FactoryAdapter.attribStack:()Lscala/collection/mutable/Stack;
Asciz	pop;
Asciz	()Ljava/lang/Object;;
NameAndType	pop:()Ljava/lang/Object;
Method	scala/collection/mutable/Stack.pop:()Ljava/lang/Object;
Asciz	scala/xml/MetaData;
class	scala/xml/MetaData
Asciz	scala/xml/parsing/FactoryAdapter$$anonfun$1;
class	scala/xml/parsing/FactoryAdapter$$anonfun$1
Asciz	(Lscala/xml/parsing/FactoryAdapter;)V;
NameAndType	"<init>":(Lscala/xml/parsing/FactoryAdapter;)V
Method	scala/xml/parsing/FactoryAdapter$$anonfun$1."<init>":(Lscala/xml/parsing/FactoryAdapter;)V
Asciz	scala/collection/Iterator$$anon$13;
class	scala/collection/Iterator$$anon$13
Asciz	(Lscala/Function0;)V;
NameAndType	"<init>":(Lscala/Function0;)V
Method	scala/collection/Iterator$$anon$13."<init>":(Lscala/Function0;)V
Asciz	scala/xml/parsing/FactoryAdapter$$anonfun$2;
class	scala/xml/parsing/FactoryAdapter$$anonfun$2
Method	scala/xml/parsing/FactoryAdapter$$anonfun$2."<init>":(Lscala/xml/parsing/FactoryAdapter;)V
Asciz	scala/collection/Iterator$class;
class	scala/collection/Iterator$class
Asciz	takeWhile;
Asciz	(Lscala/collection/Iterator;Lscala/Function1;)Lscala/collection/Iterator;;
NameAndType	takeWhile:(Lscala/collection/Iterator;Lscala/Function1;)Lscala/collection/Iterator;
Method	scala/collection/Iterator$class.takeWhile:(Lscala/collection/Iterator;Lscala/Function1;)Lscala/collection/Iterator;
Asciz	scala/collection/Iterator;
class	scala/collection/Iterator
Asciz	toList;
Asciz	()Lscala/collection/immutable/List;;
NameAndType	toList:()Lscala/collection/immutable/List;
InterfaceMethod	scala/collection/Iterator.toList:()Lscala/collection/immutable/List;
Asciz	scala/collection/immutable/List;
class	scala/collection/immutable/List
Asciz	reverse;
NameAndType	reverse:()Lscala/collection/immutable/List;
Method	scala/collection/immutable/List.reverse:()Lscala/collection/immutable/List;
Asciz	scala$xml$parsing$FactoryAdapter$$splitName;
Asciz	(Ljava/lang/String;)Lscala/Tuple2;;
NameAndType	scala$xml$parsing$FactoryAdapter$$splitName:(Ljava/lang/String;)Lscala/Tuple2;
Method	scala/xml/parsing/FactoryAdapter.scala$xml$parsing$FactoryAdapter$$splitName:(Ljava/lang/String;)Lscala/Tuple2;
Asciz	scala/Tuple2;
class	scala/Tuple2
Asciz	_1;
NameAndType	_1:()Ljava/lang/Object;
Method	scala/Tuple2._1:()Ljava/lang/Object;
Asciz	java/lang/String;
class	java/lang/String
Asciz	_2;
NameAndType	_2:()Ljava/lang/Object;
Method	scala/Tuple2._2:()Ljava/lang/Object;
Asciz	(Ljava/lang/Object;Ljava/lang/Object;)V;
NameAndType	"<init>":(Ljava/lang/Object;Ljava/lang/Object;)V
Method	scala/Tuple2."<init>":(Ljava/lang/Object;Ljava/lang/Object;)V
NameAndType	scopeStack:()Lscala/collection/mutable/Stack;
Method	scala/xml/parsing/FactoryAdapter.scopeStack:()Lscala/collection/mutable/Stack;
Asciz	scala/xml/NamespaceBinding;
class	scala/xml/NamespaceBinding
Asciz	createNode;
Asciz	(Ljava/lang/String;Ljava/lang/String;Lscala/xml/MetaData;Lscala/xml/NamespaceBinding;Lscala/collection/immutable/List;)Lscala/xml/Node;;
NameAndType	createNode:(Ljava/lang/String;Ljava/lang/String;Lscala/xml/MetaData;Lscala/xml/NamespaceBinding;Lscala/collection/immutable/List;)Lscala/xml/Node;
Method	scala/xml/parsing/FactoryAdapter.createNode:(Ljava/lang/String;Ljava/lang/String;Lscala/xml/MetaData;Lscala/xml/NamespaceBinding;Lscala/collection/immutable/List;)Lscala/xml/Node;
Asciz	rootElem_$eq;
Asciz	(Lscala/xml/Node;)V;
NameAndType	rootElem_$eq:(Lscala/xml/Node;)V
Method	scala/xml/parsing/FactoryAdapter.rootElem_$eq:(Lscala/xml/Node;)V
Asciz	()Lscala/xml/Node;;
NameAndType	rootElem:()Lscala/xml/Node;
Method	scala/xml/parsing/FactoryAdapter.rootElem:()Lscala/xml/Node;
Asciz	push;
Asciz	(Ljava/lang/Object;)Lscala/collection/mutable/Stack;;
NameAndType	push:(Ljava/lang/Object;)Lscala/collection/mutable/Stack;
Method	scala/collection/mutable/Stack.push:(Ljava/lang/Object;)Lscala/collection/mutable/Stack;
NameAndType	tagStack:()Lscala/collection/mutable/Stack;
Method	scala/xml/parsing/FactoryAdapter.tagStack:()Lscala/collection/mutable/Stack;
Asciz	curTag_$eq;
Asciz	(Ljava/lang/String;)V;
NameAndType	curTag_$eq:(Ljava/lang/String;)V
Method	scala/xml/parsing/FactoryAdapter.curTag_$eq:(Ljava/lang/String;)V
Asciz	()Ljava/lang/String;;
NameAndType	curTag:()Ljava/lang/String;
Method	scala/xml/parsing/FactoryAdapter.curTag:()Ljava/lang/String;
Asciz	java/lang/Object;
class	java/lang/Object
Asciz	equals;
Asciz	(Ljava/lang/Object;)Z;
NameAndType	equals:(Ljava/lang/Object;)Z
Method	java/lang/Object.equals:(Ljava/lang/Object;)Z
Asciz	nodeContainsText;
Asciz	(Ljava/lang/String;)Z;
NameAndType	nodeContainsText:(Ljava/lang/String;)Z
Method	scala/xml/parsing/FactoryAdapter.nodeContainsText:(Ljava/lang/String;)Z
Asciz	capture_$eq;
Asciz	(Z)V;
NameAndType	capture_$eq:(Z)V
Method	scala/xml/parsing/FactoryAdapter.capture_$eq:(Z)V
Asciz	scala/MatchError;
class	scala/MatchError
Asciz	toString;
NameAndType	toString:()Ljava/lang/String;
Method	scala/Tuple2.toString:()Ljava/lang/String;
NameAndType	"<init>":(Ljava/lang/String;)V
Method	scala/MatchError."<init>":(Ljava/lang/String;)V
Asciz	uri;
Asciz	_localName;
Asciz	qname;
Asciz	temp5;
Asciz	temp6;
Asciz	pre;
Asciz	localName;
Asciz	metaData;
Asciz	Lscala/xml/MetaData;;
Asciz	scp;
Asciz	Lscala/xml/NamespaceBinding;;
Asciz	v;
Asciz	Lscala/collection/immutable/List;;
Asciz	temp4;
Asciz	Lscala/Tuple2;;
Asciz	()Z;
NameAndType	capture:()Z
Method	scala/xml/parsing/FactoryAdapter.capture:()Z
Asciz	()Lscala/collection/mutable/StringBuilder;;
NameAndType	buffer:()Lscala/collection/mutable/StringBuilder;
Method	scala/xml/parsing/FactoryAdapter.buffer:()Lscala/collection/mutable/StringBuilder;
Asciz	length;
Asciz	()I;
NameAndType	length:()I
Method	scala/collection/mutable/StringBuilder.length:()I
Method	scala/collection/mutable/StringBuilder.toString:()Ljava/lang/String;
Asciz	createText;
Asciz	(Ljava/lang/String;)Lscala/xml/Text;;
NameAndType	createText:(Ljava/lang/String;)Lscala/xml/Text;
Method	scala/xml/parsing/FactoryAdapter.createText:(Ljava/lang/String;)Lscala/xml/Text;
Asciz	scala/runtime/BoxedUnit;
class	scala/runtime/BoxedUnit
Asciz	UNIT;
Asciz	Lscala/runtime/BoxedUnit;;
NameAndType	UNIT:Lscala/runtime/BoxedUnit;
Field	scala/runtime/BoxedUnit.UNIT:Lscala/runtime/BoxedUnit;
Asciz	setLength;
Asciz	(I)V;
NameAndType	setLength:(I)V
Method	scala/collection/mutable/StringBuilder.setLength:(I)V
Asciz	startElement;
Asciz	(Ljava/lang/String;Ljava/lang/String;Ljava/lang/String;Lorg/xml/sax/Attributes;)V;
Asciz	scala/runtime/ObjectRef;
class	scala/runtime/ObjectRef
Asciz	scala/xml/Null$;
class	scala/xml/Null$
Asciz	MODULE$;
Asciz	Lscala/xml/Null$;;
NameAndType	MODULE$:Lscala/xml/Null$;
Field	scala/xml/Null$.MODULE$:Lscala/xml/Null$;
Asciz	(Ljava/lang/Object;)V;
NameAndType	"<init>":(Ljava/lang/Object;)V
Method	scala/runtime/ObjectRef."<init>":(Ljava/lang/Object;)V
Asciz	top;
NameAndType	top:()Ljava/lang/Object;
Method	scala/collection/mutable/Stack.top:()Ljava/lang/Object;
Asciz	scala/Predef$;
class	scala/Predef$
Asciz	Lscala/Predef$;;
NameAndType	MODULE$:Lscala/Predef$;
Field	scala/Predef$.MODULE$:Lscala/Predef$;
Asciz	intWrapper;
Asciz	(I)Lscala/runtime/RichInt;;
NameAndType	intWrapper:(I)Lscala/runtime/RichInt;
Method	scala/Predef$.intWrapper:(I)Lscala/runtime/RichInt;
Asciz	org/xml/sax/Attributes;
class	org/xml/sax/Attributes
Asciz	getLength;
NameAndType	getLength:()I
InterfaceMethod	org/xml/sax/Attributes.getLength:()I
Asciz	scala/runtime/RichInt;
class	scala/runtime/RichInt
Asciz	until;
Asciz	(I)Lscala/collection/immutable/Range$ByOne;;
NameAndType	until:(I)Lscala/collection/immutable/Range$ByOne;
Method	scala/runtime/RichInt.until:(I)Lscala/collection/immutable/Range$ByOne;
Asciz	scala/xml/parsing/FactoryAdapter$$anonfun$startElement$1;
class	scala/xml/parsing/FactoryAdapter$$anonfun$startElement$1
Asciz	(Lscala/xml/parsing/FactoryAdapter;Lorg/xml/sax/Attributes;Lscala/runtime/ObjectRef;Lscala/runtime/ObjectRef;)V;
NameAndType	"<init>":(Lscala/xml/parsing/FactoryAdapter;Lorg/xml/sax/Attributes;Lscala/runtime/ObjectRef;Lscala/runtime/ObjectRef;)V
Method	scala/xml/parsing/FactoryAdapter$$anonfun$startElement$1."<init>":(Lscala/xml/parsing/FactoryAdapter;Lorg/xml/sax/Attributes;Lscala/runtime/ObjectRef;Lscala/runtime/ObjectRef;)V
Asciz	scala/collection/immutable/Range$ByOne;
class	scala/collection/immutable/Range$ByOne
Asciz	foreach;
Asciz	(Lscala/Function1;)V;
NameAndType	foreach:(Lscala/Function1;)V
InterfaceMethod	scala/collection/immutable/Range$ByOne.foreach:(Lscala/Function1;)V
Asciz	elem;
Asciz	Ljava/lang/Object;;
NameAndType	elem:Ljava/lang/Object;
Field	scala/runtime/ObjectRef.elem:Ljava/lang/Object;
Asciz	attributes$1;
Asciz	Lorg/xml/sax/Attributes;;
Asciz	m$1;
Asciz	Lscala/runtime/ObjectRef;;
Asciz	scpe$1;
int	58;
Asciz	indexOf;
Asciz	(I)I;
NameAndType	indexOf:(I)I
Method	java/lang/String.indexOf:(I)I
Asciz	scala/collection/immutable/StringOps;
class	scala/collection/immutable/StringOps
Method	scala/collection/immutable/StringOps."<init>":(Ljava/lang/String;)V
Asciz	scala/collection/IndexedSeqLike;
class	scala/collection/IndexedSeqLike
Asciz	take;
Asciz	(I)Ljava/lang/Object;;
NameAndType	take:(I)Ljava/lang/Object;
InterfaceMethod	scala/collection/IndexedSeqLike.take:(I)Ljava/lang/Object;
Asciz	drop;
NameAndType	drop:(I)Ljava/lang/Object;
InterfaceMethod	scala/collection/IndexedSeqLike.drop:(I)Ljava/lang/Object;
Asciz	s;
Asciz	idx;
Asciz	I;
Asciz	characters;
Asciz	([CII)V;
NameAndType	normalizeWhitespace:()Z
Method	scala/xml/parsing/FactoryAdapter.normalizeWhitespace:()Z
Asciz	scala/collection/mutable/ArrayOps$ofChar;
class	scala/collection/mutable/ArrayOps$ofChar
Asciz	([C)V;
NameAndType	"<init>":([C)V
Method	scala/collection/mutable/ArrayOps$ofChar."<init>":([C)V
Asciz	slice;
Asciz	(II)Ljava/lang/Object;;
NameAndType	slice:(II)Ljava/lang/Object;
InterfaceMethod	scala/collection/IndexedSeqLike.slice:(II)Ljava/lang/Object;
Asciz	[C;
class	"[C"
Asciz	iterator;
Asciz	()Lscala/collection/Iterator;;
NameAndType	iterator:()Lscala/collection/Iterator;
InterfaceMethod	scala/collection/IndexedSeqLike.iterator:()Lscala/collection/Iterator;
Asciz	hasNext;
NameAndType	hasNext:()Z
InterfaceMethod	scala/collection/Iterator.hasNext:()Z
Asciz	next;
NameAndType	next:()Ljava/lang/Object;
InterfaceMethod	scala/collection/Iterator.next:()Ljava/lang/Object;
Asciz	scala/runtime/BoxesRunTime;
class	scala/runtime/BoxesRunTime
Asciz	unboxToChar;
Asciz	(Ljava/lang/Object;)C;
NameAndType	unboxToChar:(Ljava/lang/Object;)C
Method	scala/runtime/BoxesRunTime.unboxToChar:(Ljava/lang/Object;)C
Asciz	java/lang/Character;
class	java/lang/Character
Asciz	isWhitespace;
Asciz	(C)Z;
NameAndType	isWhitespace:(C)Z
Method	java/lang/Character.isWhitespace:(C)Z
int	32;
Asciz	append;
Asciz	(C)Lscala/collection/mutable/StringBuilder;;
NameAndType	append:(C)Lscala/collection/mutable/StringBuilder;
Method	scala/collection/mutable/StringBuilder.append:(C)Lscala/collection/mutable/StringBuilder;
Asciz	scala/xml/parsing/FactoryAdapter$$anonfun$characters$1;
class	scala/xml/parsing/FactoryAdapter$$anonfun$characters$1
Method	scala/xml/parsing/FactoryAdapter$$anonfun$characters$1."<init>":(Lscala/xml/parsing/FactoryAdapter;)V
Asciz	dropWhile;
Asciz	(Lscala/Function1;)Lscala/collection/Iterator;;
NameAndType	dropWhile:(Lscala/Function1;)Lscala/collection/Iterator;
InterfaceMethod	scala/collection/Iterator.dropWhile:(Lscala/Function1;)Lscala/collection/Iterator;
Asciz	appendAll;
Asciz	([CII)Lscala/collection/mutable/StringBuilder;;
NameAndType	appendAll:([CII)Lscala/collection/mutable/StringBuilder;
Method	scala/collection/mutable/StringBuilder.appendAll:([CII)Lscala/collection/mutable/StringBuilder;
Asciz	ch;
Asciz	offset;
Asciz	c;
Asciz	C;
Asciz	isSpace;
Asciz	it;
Asciz	Lscala/collection/Iterator;;
Asciz	(Ljava/lang/String;Ljava/lang/String;)Lscala/collection/Seq<Lscala/xml/ProcInstr;>;;
Asciz	(Ljava/lang/String;Ljava/lang/String;Lscala/xml/MetaData;Lscala/xml/NamespaceBinding;Lscala/collection/immutable/List<Lscala/xml/Node;>;)Lscala/xml/Node;;
Asciz	scopeStack_$eq;
Asciz	(Lscala/collection/mutable/Stack;)V;
Asciz	(Lscala/collection/mutable/Stack<Lscala/xml/NamespaceBinding;>;)V;
Asciz	()Lscala/collection/mutable/Stack<Lscala/xml/NamespaceBinding;>;;
Asciz	()Lscala/collection/mutable/Stack<Ljava/lang/String;>;;
Asciz	()Lscala/collection/mutable/Stack<Lscala/xml/Node;>;;
Asciz	()Lscala/collection/mutable/Stack<Lscala/xml/MetaData;>;;
Asciz	loadString;
Asciz	(Ljava/lang/String;)Lscala/xml/Node;;
Asciz	(Lscala/xml/factory/XMLLoader;Ljava/lang/String;)Lscala/xml/Node;;
NameAndType	loadString:(Lscala/xml/factory/XMLLoader;Ljava/lang/String;)Lscala/xml/Node;
Method	scala/xml/factory/XMLLoader$class.loadString:(Lscala/xml/factory/XMLLoader;Ljava/lang/String;)Lscala/xml/Node;
Asciz	string;
Asciz	load;
Asciz	(Ljava/net/URL;)Lscala/xml/Node;;
Asciz	(Lscala/xml/factory/XMLLoader;Ljava/net/URL;)Lscala/xml/Node;;
NameAndType	load:(Lscala/xml/factory/XMLLoader;Ljava/net/URL;)Lscala/xml/Node;
Method	scala/xml/factory/XMLLoader$class.load:(Lscala/xml/factory/XMLLoader;Ljava/net/URL;)Lscala/xml/Node;
Asciz	url;
Asciz	Ljava/net/URL;;
Asciz	(Lorg/xml/sax/InputSource;)Lscala/xml/Node;;
Asciz	(Lscala/xml/factory/XMLLoader;Lorg/xml/sax/InputSource;)Lscala/xml/Node;;
NameAndType	load:(Lscala/xml/factory/XMLLoader;Lorg/xml/sax/InputSource;)Lscala/xml/Node;
Method	scala/xml/factory/XMLLoader$class.load:(Lscala/xml/factory/XMLLoader;Lorg/xml/sax/InputSource;)Lscala/xml/Node;
Asciz	source;
Asciz	Lorg/xml/sax/InputSource;;
NameAndType	load:(Lscala/xml/factory/XMLLoader;Ljava/lang/String;)Lscala/xml/Node;
Method	scala/xml/factory/XMLLoader$class.load:(Lscala/xml/factory/XMLLoader;Ljava/lang/String;)Lscala/xml/Node;
Asciz	sysID;
Asciz	(Ljava/io/Reader;)Lscala/xml/Node;;
Asciz	(Lscala/xml/factory/XMLLoader;Ljava/io/Reader;)Lscala/xml/Node;;
NameAndType	load:(Lscala/xml/factory/XMLLoader;Ljava/io/Reader;)Lscala/xml/Node;
Method	scala/xml/factory/XMLLoader$class.load:(Lscala/xml/factory/XMLLoader;Ljava/io/Reader;)Lscala/xml/Node;
Asciz	reader;
Asciz	Ljava/io/Reader;;
Asciz	(Ljava/io/InputStream;)Lscala/xml/Node;;
Asciz	(Lscala/xml/factory/XMLLoader;Ljava/io/InputStream;)Lscala/xml/Node;;
NameAndType	load:(Lscala/xml/factory/XMLLoader;Ljava/io/InputStream;)Lscala/xml/Node;
Method	scala/xml/factory/XMLLoader$class.load:(Lscala/xml/factory/XMLLoader;Ljava/io/InputStream;)Lscala/xml/Node;
Asciz	is;
Asciz	Ljava/io/InputStream;;
Asciz	loadFile;
NameAndType	loadFile:(Lscala/xml/factory/XMLLoader;Ljava/lang/String;)Lscala/xml/Node;
Method	scala/xml/factory/XMLLoader$class.loadFile:(Lscala/xml/factory/XMLLoader;Ljava/lang/String;)Lscala/xml/Node;
Asciz	name;
Asciz	(Ljava/io/FileDescriptor;)Lscala/xml/Node;;
Asciz	(Lscala/xml/factory/XMLLoader;Ljava/io/FileDescriptor;)Lscala/xml/Node;;
NameAndType	loadFile:(Lscala/xml/factory/XMLLoader;Ljava/io/FileDescriptor;)Lscala/xml/Node;
Method	scala/xml/factory/XMLLoader$class.loadFile:(Lscala/xml/factory/XMLLoader;Ljava/io/FileDescriptor;)Lscala/xml/Node;
Asciz	fd;
Asciz	Ljava/io/FileDescriptor;;
Asciz	(Ljava/io/File;)Lscala/xml/Node;;
Asciz	(Lscala/xml/factory/XMLLoader;Ljava/io/File;)Lscala/xml/Node;;
NameAndType	loadFile:(Lscala/xml/factory/XMLLoader;Ljava/io/File;)Lscala/xml/Node;
Method	scala/xml/factory/XMLLoader$class.loadFile:(Lscala/xml/factory/XMLLoader;Ljava/io/File;)Lscala/xml/Node;
Asciz	file;
Asciz	Ljava/io/File;;
Asciz	loadXML;
Asciz	(Lorg/xml/sax/InputSource;Ljavax/xml/parsers/SAXParser;)Lscala/xml/Node;;
Asciz	(Lscala/xml/factory/XMLLoader;Lorg/xml/sax/InputSource;Ljavax/xml/parsers/SAXParser;)Lscala/xml/Node;;
NameAndType	loadXML:(Lscala/xml/factory/XMLLoader;Lorg/xml/sax/InputSource;Ljavax/xml/parsers/SAXParser;)Lscala/xml/Node;
Method	scala/xml/factory/XMLLoader$class.loadXML:(Lscala/xml/factory/XMLLoader;Lorg/xml/sax/InputSource;Ljavax/xml/parsers/SAXParser;)Lscala/xml/Node;
Asciz	parser;
Asciz	Ljavax/xml/parsers/SAXParser;;
Asciz	()Ljavax/xml/parsers/SAXParser;;
Asciz	(Lscala/xml/factory/XMLLoader;)Ljavax/xml/parsers/SAXParser;;
NameAndType	parser:(Lscala/xml/factory/XMLLoader;)Ljavax/xml/parsers/SAXParser;
Method	scala/xml/factory/XMLLoader$class.parser:(Lscala/xml/factory/XMLLoader;)Ljavax/xml/parsers/SAXParser;
Asciz	adapter;
Asciz	()Lscala/xml/parsing/FactoryAdapter;;
Asciz	(Lscala/xml/factory/XMLLoader;)Lscala/xml/parsing/FactoryAdapter;;
NameAndType	adapter:(Lscala/xml/factory/XMLLoader;)Lscala/xml/parsing/FactoryAdapter;
Method	scala/xml/factory/XMLLoader$class.adapter:(Lscala/xml/factory/XMLLoader;)Lscala/xml/parsing/FactoryAdapter;
Asciz	scala$xml$factory$XMLLoader$_setter_$scala$xml$factory$XMLLoader$$saxFactory_$eq;
Asciz	(Ljavax/xml/parsers/SAXParserFactory;)V;
NameAndType	scala$xml$factory$XMLLoader$$saxFactory:Ljavax/xml/parsers/SAXParserFactory;
Field	scala/xml/parsing/FactoryAdapter.scala$xml$factory$XMLLoader$$saxFactory:Ljavax/xml/parsers/SAXParserFactory;
Asciz	()Ljavax/xml/parsers/SAXParserFactory;;
Asciz	Lorg/xml/sax/helpers/DefaultHandler;Lscala/xml/factory/XMLLoader<Lscala/xml/Node;>;Lscala/ScalaObject;;
Asciz	ScalaSig;
Asciz	InnerClasses;
Asciz	scala/collection/immutable/Range;
class	scala/collection/immutable/Range
Asciz	ByOne;
Asciz	scala/collection/mutable/ArrayOps;
class	scala/collection/mutable/ArrayOps
Asciz	ofChar;
Asciz	$anon$13;
Asciz	$anonfun$2;
Asciz	$anonfun$1;
Asciz	$anonfun$characters$1;
Asciz	$anonfun$startElement$1;
Asciz	scala/xml/factory/XMLLoader;
class	scala/xml/factory/XMLLoader
Asciz	scala/ScalaObject;
class	scala/ScalaObject

{
private final javax.xml.parsers.SAXParserFactory scala$xml$factory$XMLLoader$$saxFactory;
  Signature: Ljavax/xml/parsers/SAXParserFactory;

private final boolean normalizeWhitespace;
  Signature: Z

private boolean capture;
  Signature: Z

private java.lang.String curTag;
  Signature: Ljava/lang/String;

private scala.collection.mutable.Stack scopeStack;
  Signature: Lscala/collection/mutable/Stack;
  Signature: length = 0x2
   00 0C 

private final scala.collection.mutable.Stack tagStack;
  Signature: Lscala/collection/mutable/Stack;
  Signature: length = 0x2
   00 0F 

private final scala.collection.mutable.Stack hStack;
  Signature: Lscala/collection/mutable/Stack;
  Signature: length = 0x2
   00 11 

private final scala.collection.mutable.Stack attribStack;
  Signature: Lscala/collection/mutable/Stack;
  Signature: length = 0x2
   00 13 

private final scala.collection.mutable.StringBuilder buffer;
  Signature: Lscala/collection/mutable/StringBuilder;

private scala.xml.Node rootElem;
  Signature: Lscala/xml/Node;

public scala.xml.parsing.FactoryAdapter();
  Signature: ()V
  Code:
   Stack=3, Locals=1, Args_size=1
	aload_0
	invokespecial	Method org/xml/sax/helpers/DefaultHandler."<init>":()V
	aload_0
	invokestatic	Method scala/xml/factory/XMLLoader$class.$init$:(Lscala/xml/factory/XMLLoader;)V
	aload_0
	aconst_null
	putfield	Field rootElem:Lscala/xml/Node;
	aload_0
	new	class scala/collection/mutable/StringBuilder
	dup
	invokespecial	Method scala/collection/mutable/StringBuilder."<init>":()V
	putfield	Field buffer:Lscala/collection/mutable/StringBuilder;
	aload_0
	new	class scala/collection/mutable/Stack
	dup
	invokespecial	Method scala/collection/mutable/Stack."<init>":()V
	putfield	Field attribStack:Lscala/collection/mutable/Stack;
	aload_0
	new	class scala/collection/mutable/Stack
	dup
	invokespecial	Method scala/collection/mutable/Stack."<init>":()V
	putfield	Field hStack:Lscala/collection/mutable/Stack;
	aload_0
	new	class scala/collection/mutable/Stack
	dup
	invokespecial	Method scala/collection/mutable/Stack."<init>":()V
	putfield	Field tagStack:Lscala/collection/mutable/Stack;
	aload_0
	new	class scala/collection/mutable/Stack
	dup
	invokespecial	Method scala/collection/mutable/Stack."<init>":()V
	putfield	Field scopeStack:Lscala/collection/mutable/Stack;
	aload_0
	aconst_null
	putfield	Field curTag:Ljava/lang/String;
	aload_0
	iconst_0
	putfield	Field capture:Z
	aload_0
	iconst_0
	putfield	Field normalizeWhitespace:Z
	return
  Labels:

public void processingInstruction(java.lang.String, java.lang.String);
  Signature: (Ljava/lang/String;Ljava/lang/String;)V
  Code:
   Stack=4, Locals=3, Args_size=3
	aload_0
	invokevirtual	Method hStack:()Lscala/collection/mutable/Stack;
	aload_0
	aload_1
	aload_2
	invokevirtual	Method createProcInstr:(Ljava/lang/String;Ljava/lang/String;)Lscala/collection/Seq;
	invokevirtual	Method scala/collection/mutable/Stack.pushAll:(Lscala/collection/Traversable;)Lscala/collection/mutable/Stack;
	pop
	return
  Labels:
  LocalVariableTable: 
   Start  Length  Slot  Name   Signature
   0      15      0    this       Lscala/xml/parsing/FactoryAdapter;
   0      15      1    target       Ljava/lang/String;
   0      15      2    data       Ljava/lang/String;


public void endElement(java.lang.String, java.lang.String, java.lang.String);
  Signature: (Ljava/lang/String;Ljava/lang/String;Ljava/lang/String;)V
  Code:
   Stack=7, Locals=17, Args_size=4
	aload_0
	invokevirtual	Method captureText:()V
	aload_0
	invokevirtual	Method attribStack:()Lscala/collection/mutable/Stack;
	invokevirtual	Method scala/collection/mutable/Stack.pop:()Ljava/lang/Object;
	checkcast	class scala/xml/MetaData
	astore	12
	new	class scala/xml/parsing/FactoryAdapter$$anonfun$1
	dup
	aload_0
	invokespecial	Method scala/xml/parsing/FactoryAdapter$$anonfun$1."<init>":(Lscala/xml/parsing/FactoryAdapter;)V
	astore	4
	new	class scala/collection/Iterator$$anon$13
	dup
	aload	4
	invokespecial	Method scala/collection/Iterator$$anon$13."<init>":(Lscala/Function0;)V
	new	class scala/xml/parsing/FactoryAdapter$$anonfun$2
	dup
	aload_0
	invokespecial	Method scala/xml/parsing/FactoryAdapter$$anonfun$2."<init>":(Lscala/xml/parsing/FactoryAdapter;)V
	astore	6
	astore	5
	aload	5
	aload	6
	invokestatic	Method scala/collection/Iterator$class.takeWhile:(Lscala/collection/Iterator;Lscala/Function1;)Lscala/collection/Iterator;
	invokeinterface	InterfaceMethod scala/collection/Iterator.toList:()Lscala/collection/immutable/List;
	invokevirtual	Method scala/collection/immutable/List.reverse:()Lscala/collection/immutable/List;
	astore	14
	aload_0
	aload_3
	invokevirtual	Method scala$xml$parsing$FactoryAdapter$$splitName:(Ljava/lang/String;)Lscala/Tuple2;
	astore	16
	aload	16
	ifnull	l1 // new
	aload	16
	invokevirtual	Method scala/Tuple2._1:()Ljava/lang/Object;
	checkcast	class java/lang/String
	astore	7
	aload	16
	invokevirtual	Method scala/Tuple2._2:()Ljava/lang/Object;
	checkcast	class java/lang/String
	astore	8
	iconst_1
	ifeq	l2 // new
	new	class scala/Tuple2
	dup
	aload	7
	aload	8
	invokespecial	Method scala/Tuple2."<init>":(Ljava/lang/Object;Ljava/lang/Object;)V
	astore	9
	aload	9
	invokevirtual	Method scala/Tuple2._1:()Ljava/lang/Object;
	checkcast	class java/lang/String
	astore	10
	aload	9
	invokevirtual	Method scala/Tuple2._2:()Ljava/lang/Object;
	checkcast	class java/lang/String
	astore	11
	aload_0
	invokevirtual	Method scopeStack:()Lscala/collection/mutable/Stack;
	invokevirtual	Method scala/collection/mutable/Stack.pop:()Ljava/lang/Object;
	checkcast	class scala/xml/NamespaceBinding
	astore	13
	aload_0
	aload_0
	aload	10
	aload	11
	aload	12
	aload	13
	aload	14
	invokevirtual	Method createNode:(Ljava/lang/String;Ljava/lang/String;Lscala/xml/MetaData;Lscala/xml/NamespaceBinding;Lscala/collection/immutable/List;)Lscala/xml/Node;
	invokevirtual	Method rootElem_$eq:(Lscala/xml/Node;)V
	aload_0
	invokevirtual	Method hStack:()Lscala/collection/mutable/Stack;
	aload_0
	invokevirtual	Method rootElem:()Lscala/xml/Node;
	invokevirtual	Method scala/collection/mutable/Stack.push:(Ljava/lang/Object;)Lscala/collection/mutable/Stack;
	pop
	aload_0
	aload_0
	invokevirtual	Method tagStack:()Lscala/collection/mutable/Stack;
	invokevirtual	Method scala/collection/mutable/Stack.pop:()Ljava/lang/Object;
	checkcast	class java/lang/String
	invokevirtual	Method curTag_$eq:(Ljava/lang/String;)V
	aload_0
	aload_0
	invokevirtual	Method curTag:()Ljava/lang/String;
	dup
	astore	15
	ifnull	l3 // iconst_0
	aload	15
	aconst_null
	invokevirtual	Method java/lang/Object.equals:(Ljava/lang/Object;)Z
	ifne	l3 // iconst_0
	aload_0
	aload_0
	invokevirtual	Method curTag:()Ljava/lang/String;
	invokevirtual	Method nodeContainsText:(Ljava/lang/String;)Z
	ifeq	l3 // iconst_0
	iconst_1
	goto	l4 // invokevirtual
l3	iconst_0
l4	invokevirtual	Method capture_$eq:(Z)V
	return
l2	new	class scala/MatchError
	dup
	aload	16
	invokevirtual	Method scala/Tuple2.toString:()Ljava/lang/String;
	invokespecial	Method scala/MatchError."<init>":(Ljava/lang/String;)V
	athrow
l1	new	class scala/MatchError
	dup
	aload	16
	invokevirtual	Method scala/Tuple2.toString:()Ljava/lang/String;
	invokespecial	Method scala/MatchError."<init>":(Ljava/lang/String;)V
	athrow
  Labels:
   	l3 = 224 // iconst_0
   	l4 = 225 // invokevirtual
   	l2 = 229 // new
   	l1 = 242 // new
  LocalVariableTable: 
   Start  Length  Slot  Name   Signature
   0      255      0    this       Lscala/xml/parsing/FactoryAdapter;
   0      255      1    uri       Ljava/lang/String;
   0      255      2    _localName       Ljava/lang/String;
   0      255      3    qname       Ljava/lang/String;
   86      114      7    temp5       Ljava/lang/String;
   229      13      7    temp5       Ljava/lang/String;
   96      104      8    temp6       Ljava/lang/String;
   229      13      8    temp6       Ljava/lang/String;
   123      105      10    pre       Ljava/lang/String;
   133      95      11    localName       Ljava/lang/String;
   16      212      12    metaData       Lscala/xml/MetaData;
   229      26      12    metaData       Lscala/xml/MetaData;
   145      83      13    scp       Lscala/xml/NamespaceBinding;
   64      164      14    v       Lscala/collection/immutable/List;
   229      26      14    v       Lscala/collection/immutable/List;
   71      129      16    temp4       Lscala/Tuple2;
   229      26      16    temp4       Lscala/Tuple2;


public void captureText();
  Signature: ()V
  Code:
   Stack=3, Locals=2, Args_size=1
	aload_0
	invokevirtual	Method capture:()Z
	ifeq	l1 // getstatic
	aload_0
	invokevirtual	Method buffer:()Lscala/collection/mutable/StringBuilder;
	invokevirtual	Method scala/collection/mutable/StringBuilder.length:()I
	iconst_0
	if_icmple	l1 // getstatic
	aload_0
	invokevirtual	Method hStack:()Lscala/collection/mutable/Stack;
	aload_0
	aload_0
	invokevirtual	Method buffer:()Lscala/collection/mutable/StringBuilder;
	invokevirtual	Method scala/collection/mutable/StringBuilder.toString:()Ljava/lang/String;
	invokevirtual	Method createText:(Ljava/lang/String;)Lscala/xml/Text;
	invokevirtual	Method scala/collection/mutable/Stack.push:(Ljava/lang/Object;)Lscala/collection/mutable/Stack;
	goto	l2 // pop
l1	getstatic	Field scala/runtime/BoxedUnit.UNIT:Lscala/runtime/BoxedUnit;
l2	pop
	aload_0
	invokevirtual	Method buffer:()Lscala/collection/mutable/StringBuilder;
	astore_1
	aload_1
	iconst_0
	invokevirtual	Method scala/collection/mutable/StringBuilder.setLength:(I)V
	return
  Labels:
   	l1 = 39 // getstatic
   	l2 = 42 // pop
  LocalVariableTable: 
   Start  Length  Slot  Name   Signature
   0      54      0    this       Lscala/xml/parsing/FactoryAdapter;


public void startElement(java.lang.String, java.lang.String, java.lang.String, org.xml.sax.Attributes);
  Signature: (Ljava/lang/String;Ljava/lang/String;Ljava/lang/String;Lorg/xml/sax/Attributes;)V
  Code:
   Stack=7, Locals=8, Args_size=5
	aload_0
	invokevirtual	Method captureText:()V
	aload_0
	invokevirtual	Method tagStack:()Lscala/collection/mutable/Stack;
	aload_0
	invokevirtual	Method curTag:()Ljava/lang/String;
	invokevirtual	Method scala/collection/mutable/Stack.push:(Ljava/lang/Object;)Lscala/collection/mutable/Stack;
	pop
	aload_0
	aload_3
	invokevirtual	Method curTag_$eq:(Ljava/lang/String;)V
	aload_0
	aload_3
	invokevirtual	Method scala$xml$parsing$FactoryAdapter$$splitName:(Ljava/lang/String;)Lscala/Tuple2;
	invokevirtual	Method scala/Tuple2._2:()Ljava/lang/Object;
	checkcast	class java/lang/String
	astore	5
	aload_0
	aload_0
	aload	5
	invokevirtual	Method nodeContainsText:(Ljava/lang/String;)Z
	invokevirtual	Method capture_$eq:(Z)V
	aload_0
	invokevirtual	Method hStack:()Lscala/collection/mutable/Stack;
	aconst_null
	invokevirtual	Method scala/collection/mutable/Stack.push:(Ljava/lang/Object;)Lscala/collection/mutable/Stack;
	pop
	new	class scala/runtime/ObjectRef
	dup
	getstatic	Field scala/xml/Null$.MODULE$:Lscala/xml/Null$;
	invokespecial	Method scala/runtime/ObjectRef."<init>":(Ljava/lang/Object;)V
	astore	6
	new	class scala/runtime/ObjectRef
	dup
	aload_0
	invokevirtual	Method scopeStack:()Lscala/collection/mutable/Stack;
	invokevirtual	Method scala/collection/mutable/Stack.top:()Ljava/lang/Object;
	checkcast	class scala/xml/NamespaceBinding
	invokespecial	Method scala/runtime/ObjectRef."<init>":(Ljava/lang/Object;)V
	astore	7
	getstatic	Field scala/Predef$.MODULE$:Lscala/Predef$;
	iconst_0
	invokevirtual	Method scala/Predef$.intWrapper:(I)Lscala/runtime/RichInt;
	aload	4
	invokeinterface	InterfaceMethod org/xml/sax/Attributes.getLength:()I
	invokevirtual	Method scala/runtime/RichInt.until:(I)Lscala/collection/immutable/Range$ByOne;
	new	class scala/xml/parsing/FactoryAdapter$$anonfun$startElement$1
	dup
	aload_0
	aload	4
	aload	6
	aload	7
	invokespecial	Method scala/xml/parsing/FactoryAdapter$$anonfun$startElement$1."<init>":(Lscala/xml/parsing/FactoryAdapter;Lorg/xml/sax/Attributes;Lscala/runtime/ObjectRef;Lscala/runtime/ObjectRef;)V
	invokeinterface	InterfaceMethod scala/collection/immutable/Range$ByOne.foreach:(Lscala/Function1;)V
	aload_0
	invokevirtual	Method scopeStack:()Lscala/collection/mutable/Stack;
	aload	7
	getfield	Field scala/runtime/ObjectRef.elem:Ljava/lang/Object;
	checkcast	class scala/xml/NamespaceBinding
	invokevirtual	Method scala/collection/mutable/Stack.push:(Ljava/lang/Object;)Lscala/collection/mutable/Stack;
	pop
	aload_0
	invokevirtual	Method attribStack:()Lscala/collection/mutable/Stack;
	aload	6
	getfield	Field scala/runtime/ObjectRef.elem:Ljava/lang/Object;
	checkcast	class scala/xml/MetaData
	invokevirtual	Method scala/collection/mutable/Stack.push:(Ljava/lang/Object;)Lscala/collection/mutable/Stack;
	pop
	return
  Labels:
  LocalVariableTable: 
   Start  Length  Slot  Name   Signature
   0      153      0    this       Lscala/xml/parsing/FactoryAdapter;
   0      153      1    uri       Ljava/lang/String;
   0      153      2    _localName       Ljava/lang/String;
   0      153      3    qname       Ljava/lang/String;
   0      153      4    attributes$1       Lorg/xml/sax/Attributes;
   34      118      5    localName       Ljava/lang/String;
   65      87      6    m$1       Lscala/runtime/ObjectRef;
   84      68      7    scpe$1       Lscala/runtime/ObjectRef;


public final scala.Tuple2 scala$xml$parsing$FactoryAdapter$$splitName(java.lang.String);
  Signature: (Ljava/lang/String;)Lscala/Tuple2;
  Code:
   Stack=6, Locals=3, Args_size=2
	aload_1
	ldc_w	int 58
	invokevirtual	Method java/lang/String.indexOf:(I)I
	istore_2
	iload_2
	iconst_0
	if_icmpge	l1 // new
	new	class scala/Tuple2
	dup
	aconst_null
	aload_1
	invokespecial	Method scala/Tuple2."<init>":(Ljava/lang/Object;Ljava/lang/Object;)V
	goto	l2 // areturn
l1	new	class scala/Tuple2
	dup
	new	class scala/collection/immutable/StringOps
	dup
	aload_1
	invokespecial	Method scala/collection/immutable/StringOps."<init>":(Ljava/lang/String;)V
	iload_2
	invokeinterface	InterfaceMethod scala/collection/IndexedSeqLike.take:(I)Ljava/lang/Object;
	new	class scala/collection/immutable/StringOps
	dup
	aload_1
	invokespecial	Method scala/collection/immutable/StringOps."<init>":(Ljava/lang/String;)V
	iload_2
	iconst_1
	iadd
	invokeinterface	InterfaceMethod scala/collection/IndexedSeqLike.drop:(I)Ljava/lang/Object;
	invokespecial	Method scala/Tuple2."<init>":(Ljava/lang/Object;Ljava/lang/Object;)V
l2	areturn
  Labels:
   	l1 = 25 // new
   	l2 = 62 // areturn
  LocalVariableTable: 
   Start  Length  Slot  Name   Signature
   0      63      0    this       Lscala/xml/parsing/FactoryAdapter;
   0      63      1    s       Ljava/lang/String;
   8      55      2    idx       I


public void characters(char[], int, int);
  Signature: ([CII)V
  Code:
   Stack=4, Locals=8, Args_size=4
	aload_0
	invokevirtual	Method capture:()Z
	ifeq	l1 // return
	aload_0
	invokevirtual	Method normalizeWhitespace:()Z
	ifeq	l2 // aload_0
	new	class scala/collection/mutable/ArrayOps$ofChar
	dup
	aload_1
	invokespecial	Method scala/collection/mutable/ArrayOps$ofChar."<init>":([C)V
	iload_2
	iload_2
	iload_3
	iadd
	invokeinterface	InterfaceMethod scala/collection/IndexedSeqLike.slice:(II)Ljava/lang/Object;
	checkcast	class "[C"
	astore	4
	new	class scala/collection/mutable/ArrayOps$ofChar
	dup
	aload	4
	invokespecial	Method scala/collection/mutable/ArrayOps$ofChar."<init>":([C)V
	invokeinterface	InterfaceMethod scala/collection/IndexedSeqLike.iterator:()Lscala/collection/Iterator;
	astore	7
l6	aload	7
	invokeinterface	InterfaceMethod scala/collection/Iterator.hasNext:()Z
	ifeq	l3 // return
	aload	7
	invokeinterface	InterfaceMethod scala/collection/Iterator.next:()Ljava/lang/Object;
	invokestatic	Method scala/runtime/BoxesRunTime.unboxToChar:(Ljava/lang/Object;)C
	istore	5
	iload	5
	invokestatic	Method java/lang/Character.isWhitespace:(C)Z
	istore	6
	aload_0
	invokevirtual	Method buffer:()Lscala/collection/mutable/StringBuilder;
	iload	6
	ifeq	l4 // iload
	ldc_w	int 32
	goto	l5 // invokevirtual
l4	iload	5
l5	invokevirtual	Method scala/collection/mutable/StringBuilder.append:(C)Lscala/collection/mutable/StringBuilder;
	pop
	iload	6
	ifeq	l6 // aload
	aload	7
	new	class scala/xml/parsing/FactoryAdapter$$anonfun$characters$1
	dup
	aload_0
	invokespecial	Method scala/xml/parsing/FactoryAdapter$$anonfun$characters$1."<init>":(Lscala/xml/parsing/FactoryAdapter;)V
	invokeinterface	InterfaceMethod scala/collection/Iterator.dropWhile:(Lscala/Function1;)Lscala/collection/Iterator;
	astore	7
	goto	l6 // aload
l2	aload_0
	invokevirtual	Method buffer:()Lscala/collection/mutable/StringBuilder;
	aload_1
	iload_2
	iload_3
	invokevirtual	Method scala/collection/mutable/StringBuilder.appendAll:([CII)Lscala/collection/mutable/StringBuilder;
	pop
l3	return
l1	return
  Labels:
   	l6 = 52 // aload
   	l4 = 96 // iload
   	l5 = 98 // invokevirtual
   	l2 = 127 // aload_0
   	l3 = 138 // return
   	l1 = 139 // return
  LocalVariableTable: 
   Start  Length  Slot  Name   Signature
   0      140      0    this       Lscala/xml/parsing/FactoryAdapter;
   0      140      1    ch       [C
   0      140      2    offset       I
   0      140      3    length       I
   74      53      5    c       C
   81      46      6    isSpace       Z
   52      75      7    it       Lscala/collection/Iterator;


public boolean normalizeWhitespace();
  Signature: ()Z
  Code:
   Stack=1, Locals=1, Args_size=1
	aload_0
	getfield	Field normalizeWhitespace:Z
	ireturn
  Labels:

public abstract scala.collection.Seq createProcInstr(java.lang.String, java.lang.String);
  Signature: (Ljava/lang/String;Ljava/lang/String;)Lscala/collection/Seq;
  Signature: length = 0x2
   01 6F 

public abstract scala.xml.Text createText(java.lang.String);
  Signature: (Ljava/lang/String;)Lscala/xml/Text;

public abstract scala.xml.Node createNode(java.lang.String, java.lang.String, scala.xml.MetaData, scala.xml.NamespaceBinding, scala.collection.immutable.List);
  Signature: (Ljava/lang/String;Ljava/lang/String;Lscala/xml/MetaData;Lscala/xml/NamespaceBinding;Lscala/collection/immutable/List;)Lscala/xml/Node;
  Signature: length = 0x2
   01 70 

public abstract boolean nodeContainsText(java.lang.String);
  Signature: (Ljava/lang/String;)Z

public void capture_$eq(boolean);
  Signature: (Z)V
  Code:
   Stack=2, Locals=2, Args_size=2
	aload_0
	iload_1
	putfield	Field capture:Z
	return
  Labels:

public boolean capture();
  Signature: ()Z
  Code:
   Stack=1, Locals=1, Args_size=1
	aload_0
	getfield	Field capture:Z
	ireturn
  Labels:

public void curTag_$eq(java.lang.String);
  Signature: (Ljava/lang/String;)V
  Code:
   Stack=2, Locals=2, Args_size=2
	aload_0
	aload_1
	putfield	Field curTag:Ljava/lang/String;
	return
  Labels:

public java.lang.String curTag();
  Signature: ()Ljava/lang/String;
  Code:
   Stack=1, Locals=1, Args_size=1
	aload_0
	getfield	Field curTag:Ljava/lang/String;
	areturn
  Labels:

public void scopeStack_$eq(scala.collection.mutable.Stack);
  Signature: (Lscala/collection/mutable/Stack;)V
  Code:
   Stack=2, Locals=2, Args_size=2
	aload_0
	aload_1
	putfield	Field scopeStack:Lscala/collection/mutable/Stack;
	return
  Labels:
  Signature: length = 0x2
   01 73 

public scala.collection.mutable.Stack scopeStack();
  Signature: ()Lscala/collection/mutable/Stack;
  Code:
   Stack=1, Locals=1, Args_size=1
	aload_0
	getfield	Field scopeStack:Lscala/collection/mutable/Stack;
	areturn
  Labels:
  Signature: length = 0x2
   01 74 

public scala.collection.mutable.Stack tagStack();
  Signature: ()Lscala/collection/mutable/Stack;
  Code:
   Stack=1, Locals=1, Args_size=1
	aload_0
	getfield	Field tagStack:Lscala/collection/mutable/Stack;
	areturn
  Labels:
  Signature: length = 0x2
   01 75 

public scala.collection.mutable.Stack hStack();
  Signature: ()Lscala/collection/mutable/Stack;
  Code:
   Stack=1, Locals=1, Args_size=1
	aload_0
	getfield	Field hStack:Lscala/collection/mutable/Stack;
	areturn
  Labels:
  Signature: length = 0x2
   01 76 

public scala.collection.mutable.Stack attribStack();
  Signature: ()Lscala/collection/mutable/Stack;
  Code:
   Stack=1, Locals=1, Args_size=1
	aload_0
	getfield	Field attribStack:Lscala/collection/mutable/Stack;
	areturn
  Labels:
  Signature: length = 0x2
   01 77 

public scala.collection.mutable.StringBuilder buffer();
  Signature: ()Lscala/collection/mutable/StringBuilder;
  Code:
   Stack=1, Locals=1, Args_size=1
	aload_0
	getfield	Field buffer:Lscala/collection/mutable/StringBuilder;
	areturn
  Labels:

public void rootElem_$eq(scala.xml.Node);
  Signature: (Lscala/xml/Node;)V
  Code:
   Stack=2, Locals=2, Args_size=2
	aload_0
	aload_1
	putfield	Field rootElem:Lscala/xml/Node;
	return
  Labels:

public scala.xml.Node rootElem();
  Signature: ()Lscala/xml/Node;
  Code:
   Stack=1, Locals=1, Args_size=1
	aload_0
	getfield	Field rootElem:Lscala/xml/Node;
	areturn
  Labels:

public scala.xml.Node loadString(java.lang.String);
  Signature: (Ljava/lang/String;)Lscala/xml/Node;
  Code:
   Stack=2, Locals=2, Args_size=2
	aload_0
	aload_1
	invokestatic	Method scala/xml/factory/XMLLoader$class.loadString:(Lscala/xml/factory/XMLLoader;Ljava/lang/String;)Lscala/xml/Node;
	areturn
  Labels:
  LocalVariableTable: 
   Start  Length  Slot  Name   Signature
   0      6      0    this       Lscala/xml/parsing/FactoryAdapter;
   0      6      1    string       Ljava/lang/String;


public scala.xml.Node load(java.net.URL);
  Signature: (Ljava/net/URL;)Lscala/xml/Node;
  Code:
   Stack=2, Locals=2, Args_size=2
	aload_0
	aload_1
	invokestatic	Method scala/xml/factory/XMLLoader$class.load:(Lscala/xml/factory/XMLLoader;Ljava/net/URL;)Lscala/xml/Node;
	areturn
  Labels:
  LocalVariableTable: 
   Start  Length  Slot  Name   Signature
   0      6      0    this       Lscala/xml/parsing/FactoryAdapter;
   0      6      1    url       Ljava/net/URL;


public scala.xml.Node load(org.xml.sax.InputSource);
  Signature: (Lorg/xml/sax/InputSource;)Lscala/xml/Node;
  Code:
   Stack=2, Locals=2, Args_size=2
	aload_0
	aload_1
	invokestatic	Method scala/xml/factory/XMLLoader$class.load:(Lscala/xml/factory/XMLLoader;Lorg/xml/sax/InputSource;)Lscala/xml/Node;
	areturn
  Labels:
  LocalVariableTable: 
   Start  Length  Slot  Name   Signature
   0      6      0    this       Lscala/xml/parsing/FactoryAdapter;
   0      6      1    source       Lorg/xml/sax/InputSource;


public scala.xml.Node load(java.lang.String);
  Signature: (Ljava/lang/String;)Lscala/xml/Node;
  Code:
   Stack=2, Locals=2, Args_size=2
	aload_0
	aload_1
	invokestatic	Method scala/xml/factory/XMLLoader$class.load:(Lscala/xml/factory/XMLLoader;Ljava/lang/String;)Lscala/xml/Node;
	areturn
  Labels:
  LocalVariableTable: 
   Start  Length  Slot  Name   Signature
   0      6      0    this       Lscala/xml/parsing/FactoryAdapter;
   0      6      1    sysID       Ljava/lang/String;


public scala.xml.Node load(java.io.Reader);
  Signature: (Ljava/io/Reader;)Lscala/xml/Node;
  Code:
   Stack=2, Locals=2, Args_size=2
	aload_0
	aload_1
	invokestatic	Method scala/xml/factory/XMLLoader$class.load:(Lscala/xml/factory/XMLLoader;Ljava/io/Reader;)Lscala/xml/Node;
	areturn
  Labels:
  LocalVariableTable: 
   Start  Length  Slot  Name   Signature
   0      6      0    this       Lscala/xml/parsing/FactoryAdapter;
   0      6      1    reader       Ljava/io/Reader;


public scala.xml.Node load(java.io.InputStream);
  Signature: (Ljava/io/InputStream;)Lscala/xml/Node;
  Code:
   Stack=2, Locals=2, Args_size=2
	aload_0
	aload_1
	invokestatic	Method scala/xml/factory/XMLLoader$class.load:(Lscala/xml/factory/XMLLoader;Ljava/io/InputStream;)Lscala/xml/Node;
	areturn
  Labels:
  LocalVariableTable: 
   Start  Length  Slot  Name   Signature
   0      6      0    this       Lscala/xml/parsing/FactoryAdapter;
   0      6      1    is       Ljava/io/InputStream;


public scala.xml.Node loadFile(java.lang.String);
  Signature: (Ljava/lang/String;)Lscala/xml/Node;
  Code:
   Stack=2, Locals=2, Args_size=2
	aload_0
	aload_1
	invokestatic	Method scala/xml/factory/XMLLoader$class.loadFile:(Lscala/xml/factory/XMLLoader;Ljava/lang/String;)Lscala/xml/Node;
	areturn
  Labels:
  LocalVariableTable: 
   Start  Length  Slot  Name   Signature
   0      6      0    this       Lscala/xml/parsing/FactoryAdapter;
   0      6      1    name       Ljava/lang/String;


public scala.xml.Node loadFile(java.io.FileDescriptor);
  Signature: (Ljava/io/FileDescriptor;)Lscala/xml/Node;
  Code:
   Stack=2, Locals=2, Args_size=2
	aload_0
	aload_1
	invokestatic	Method scala/xml/factory/XMLLoader$class.loadFile:(Lscala/xml/factory/XMLLoader;Ljava/io/FileDescriptor;)Lscala/xml/Node;
	areturn
  Labels:
  LocalVariableTable: 
   Start  Length  Slot  Name   Signature
   0      6      0    this       Lscala/xml/parsing/FactoryAdapter;
   0      6      1    fd       Ljava/io/FileDescriptor;


public scala.xml.Node loadFile(java.io.File);
  Signature: (Ljava/io/File;)Lscala/xml/Node;
  Code:
   Stack=2, Locals=2, Args_size=2
	aload_0
	aload_1
	invokestatic	Method scala/xml/factory/XMLLoader$class.loadFile:(Lscala/xml/factory/XMLLoader;Ljava/io/File;)Lscala/xml/Node;
	areturn
  Labels:
  LocalVariableTable: 
   Start  Length  Slot  Name   Signature
   0      6      0    this       Lscala/xml/parsing/FactoryAdapter;
   0      6      1    file       Ljava/io/File;


public scala.xml.Node loadXML(org.xml.sax.InputSource, javax.xml.parsers.SAXParser);
  Signature: (Lorg/xml/sax/InputSource;Ljavax/xml/parsers/SAXParser;)Lscala/xml/Node;
  Code:
   Stack=3, Locals=3, Args_size=3
	aload_0
	aload_1
	aload_2
	invokestatic	Method scala/xml/factory/XMLLoader$class.loadXML:(Lscala/xml/factory/XMLLoader;Lorg/xml/sax/InputSource;Ljavax/xml/parsers/SAXParser;)Lscala/xml/Node;
	areturn
  Labels:
  LocalVariableTable: 
   Start  Length  Slot  Name   Signature
   0      7      0    this       Lscala/xml/parsing/FactoryAdapter;
   0      7      1    source       Lorg/xml/sax/InputSource;
   0      7      2    parser       Ljavax/xml/parsers/SAXParser;


public javax.xml.parsers.SAXParser parser();
  Signature: ()Ljavax/xml/parsers/SAXParser;
  Code:
   Stack=1, Locals=1, Args_size=1
	aload_0
	invokestatic	Method scala/xml/factory/XMLLoader$class.parser:(Lscala/xml/factory/XMLLoader;)Ljavax/xml/parsers/SAXParser;
	areturn
  Labels:

public scala.xml.parsing.FactoryAdapter adapter();
  Signature: ()Lscala/xml/parsing/FactoryAdapter;
  Code:
   Stack=1, Locals=1, Args_size=1
	aload_0
	invokestatic	Method scala/xml/factory/XMLLoader$class.adapter:(Lscala/xml/factory/XMLLoader;)Lscala/xml/parsing/FactoryAdapter;
	areturn
  Labels:

public void scala$xml$factory$XMLLoader$_setter_$scala$xml$factory$XMLLoader$$saxFactory_$eq(javax.xml.parsers.SAXParserFactory);
  Signature: (Ljavax/xml/parsers/SAXParserFactory;)V
  Code:
   Stack=2, Locals=2, Args_size=2
	aload_0
	aload_1
	putfield	Field scala$xml$factory$XMLLoader$$saxFactory:Ljavax/xml/parsers/SAXParserFactory;
	return
  Labels:

public final javax.xml.parsers.SAXParserFactory scala$xml$factory$XMLLoader$$saxFactory();
  Signature: ()Ljavax/xml/parsers/SAXParserFactory;
  Code:
   Stack=1, Locals=1, Args_size=1
	aload_0
	getfield	Field scala$xml$factory$XMLLoader$$saxFactory:Ljavax/xml/parsers/SAXParserFactory;
	areturn
  Labels:

}

