Compiled from "FactoryAdapter.scala"
public abstract class scala.xml.parsing.FactoryAdapter extends org.xml.sax.helpers.DefaultHandler implements scala.xml.factory.XMLLoader,scala.ScalaObject
  SourceFile: "FactoryAdapter.scala"
  Signature: length = 0x2
   01 FFFFFFBB 
  ScalaSig: length = 0x709
   05 00 FFFFFF81 6B 06 08 01 02 FFFFFF84 FFFFFF80 FFFFFF80 FFFFFF81 00 09 02 0E
   46 61 63 74 6F 72 79 41 64 61 70 74 65 72 0A 02
   03 04 01 07 70 61 72 73 69 6E 67 0A 02 05 06 01
   03 78 6D 6C 0A 01 07 01 05 73 63 61 6C 61 03 00
   13 04 00 0A 15 1F 10 02 0B 13 0D 01 0C 0A 02 0D
   0E 01 07 68 65 6C 70 65 72 73 0A 02 0F 10 01 03
   73 61 78 0A 02 05 11 0A 01 12 01 03 6F 72 67 09
   02 14 0C 02 0E 44 65 66 61 75 6C 74 48 61 6E 64
   6C 65 72 10 03 16 19 1B 0D 01 17 0A 02 18 04 01
   07 66 61 63 74 6F 72 79 09 02 1A 17 02 09 58 4D
   4C 4C 6F 61 64 65 72 10 02 1C 1D 0D 01 04 09 02
   1E 04 02 04 4E 6F 64 65 10 02 20 21 0D 01 06 09
   02 22 06 02 0B 53 63 61 6C 61 4F 62 6A 65 63 74
   08 05 24 00 FFFFFF84 00 25 01 06 3C 69 6E 69 74 3E 14
   01 26 10 02 27 00 0D 01 02 08 07 29 00 FFFFFFC0 FFFFFF80 FFFFFF84
   00 2A 01 08 72 6F 6F 74 45 6C 65 6D 15 01 1B 08
   07 2C 00 FFFFFFC0 FFFFFF80 FFFFFF84 00 2D 01 0C 72 6F 6F 74 45 6C
   65 6D 5F 24 65 71 14 02 2E 31 10 02 20 2F 09 02
   30 06 02 04 55 6E 69 74 08 07 32 2B FFFFFF81 FFFFFF80 FFFFFFC0 00
   1B 01 03 78 24 31 08 06 34 00 FFFFFFA0 FFFFFFA0 04 1B 01 09
   72 6F 6F 74 45 6C 65 6D 20 08 07 36 00 FFFFFFC2 FFFFFF80 FFFFFF84
   00 37 01 06 62 75 66 66 65 72 15 01 38 10 02 39
   3E 0D 01 3A 0A 02 3B 3C 01 07 6D 75 74 61 62 6C
   65 0A 02 3D 06 01 0A 63 6F 6C 6C 65 63 74 69 6F
   6E 09 02 3F 3A 02 0D 53 74 72 69 6E 67 42 75 69
   6C 64 65 72 08 06 41 00 FFFFFFA0 FFFFFF80 04 38 01 07 62 75
   66 66 65 72 20 08 07 43 00 FFFFFFC2 FFFFFF80 FFFFFF84 00 44 01 0B
   61 74 74 72 69 62 53 74 61 63 6B 15 01 45 10 03
   39 46 48 09 02 47 3A 02 05 53 74 61 63 6B 10 02
   1C 49 09 02 4A 04 02 08 4D 65 74 61 44 61 74 61
   08 06 4C 00 FFFFFFA0 FFFFFF80 04 45 01 0C 61 74 74 72 69 62
   53 74 61 63 6B 20 08 07 4E 00 FFFFFFC2 FFFFFF80 FFFFFF84 00 4F 01
   06 68 53 74 61 63 6B 15 01 50 10 03 39 46 1B 08
   06 52 00 FFFFFFA0 FFFFFF80 04 50 01 07 68 53 74 61 63 6B 20
   08 07 54 00 FFFFFFC2 FFFFFF80 FFFFFF84 00 55 01 08 74 61 67 53 74
   61 63 6B 15 01 56 10 03 39 46 57 10 02 58 5B 0E
   02 20 59 09 02 5A 06 01 06 50 72 65 64 65 66 09
   02 5C 5D 02 06 53 74 72 69 6E 67 0A 02 5A 06 08
   06 5F 00 FFFFFFA0 FFFFFF80 04 56 01 09 74 61 67 53 74 61 63
   6B 20 08 07 61 00 FFFFFFC0 FFFFFF80 FFFFFF84 00 62 01 0A 73 63 6F
   70 65 53 74 61 63 6B 15 01 63 10 03 39 46 64 10
   02 1C 65 09 02 66 04 02 10 4E 61 6D 65 73 70 61
   63 65 42 69 6E 64 69 6E 67 08 07 68 00 FFFFFFC0 FFFFFF80 FFFFFF84
   00 69 01 0E 73 63 6F 70 65 53 74 61 63 6B 5F 24
   65 71 14 02 2E 6A 08 07 32 67 FFFFFF81 FFFFFF80 FFFFFFC0 00 63 08
   06 6C 00 FFFFFFA0 FFFFFFA0 04 63 01 0B 73 63 6F 70 65 53 74
   61 63 6B 20 08 07 6E 00 FFFFFFC0 FFFFFF80 FFFFFF84 00 6F 01 06 63
   75 72 54 61 67 15 01 57 08 07 71 00 FFFFFFC0 FFFFFF80 FFFFFF84 00
   72 01 0A 63 75 72 54 61 67 5F 24 65 71 14 02 2E
   73 08 07 32 70 FFFFFF81 FFFFFF80 FFFFFFC0 00 57 08 06 75 00 FFFFFFA0 FFFFFFA0
   04 57 01 07 63 75 72 54 61 67 20 08 07 77 00 FFFFFFC0
   FFFFFF80 FFFFFF84 00 78 01 07 63 61 70 74 75 72 65 15 01 79
   10 02 20 7A 09 02 7B 06 02 07 42 6F 6F 6C 65 61
   6E 08 07 7D 00 FFFFFFC0 FFFFFF80 FFFFFF84 00 7E 01 0B 63 61 70 74
   75 72 65 5F 24 65 71 14 02 2E 7F 08 07 32 7C FFFFFF81
   FFFFFF80 FFFFFFC0 00 79 08 07 FFFFFF81 01 00 FFFFFFA0 FFFFFFA0 04 79 01 08 63
   61 70 74 75 72 65 20 08 07 FFFFFF81 03 00 FFFFFF86 00 FFFFFF81 04
   01 10 6E 6F 64 65 43 6F 6E 74 61 69 6E 73 54 65
   78 74 14 03 79 FFFFFF81 05 08 07 FFFFFF81 06 FFFFFF81 02 FFFFFFC0 00 57
   01 09 6C 6F 63 61 6C 4E 61 6D 65 08 07 FFFFFF81 08 00
   FFFFFF86 00 FFFFFF81 09 01 0A 63 72 65 61 74 65 4E 6F 64 65
   14 0B 1B FFFFFF81 0A FFFFFF81 0C FFFFFF81 0E FFFFFF81 10 FFFFFF81 12 08 07 FFFFFF81
   0B FFFFFF81 07 FFFFFFC0 00 57 01 03 70 72 65 08 07 FFFFFF81 0D FFFFFF81
   07 FFFFFFC0 00 57 01 08 65 6C 65 6D 4E 61 6D 65 08 07
   FFFFFF81 0F FFFFFF81 07 FFFFFFC0 00 48 01 07 61 74 74 72 69 62 73
   08 07 FFFFFF81 11 FFFFFF81 07 FFFFFFC0 00 64 01 05 73 63 6F 70 65
   08 08 FFFFFF81 13 FFFFFF81 07 FFFFFFC0 00 FFFFFF81 14 01 06 63 68 49 74
   65 72 10 05 FFFFFF81 15 FFFFFF81 18 1B 0D 02 FFFFFF81 16 0A 03 FFFFFF81
   17 3C 01 09 69 6D 6D 75 74 61 62 6C 65 09 04 FFFFFF81
   19 FFFFFF81 16 02 04 4C 69 73 74 08 07 FFFFFF81 1B 00 FFFFFF86 00
   FFFFFF81 1C 01 0A 63 72 65 61 74 65 54 65 78 74 14 04
   FFFFFF81 1D FFFFFF81 20 10 03 1C FFFFFF81 1E 09 03 FFFFFF81 1F 04 02 04
   54 65 78 74 08 07 FFFFFF81 21 FFFFFF81 1A FFFFFFC0 00 57 01 04 74
   65 78 74 08 07 FFFFFF81 23 00 FFFFFF86 00 FFFFFF81 24 01 0F 63 72
   65 61 74 65 50 72 6F 63 49 6E 73 74 72 14 06 FFFFFF81
   25 FFFFFF81 2C FFFFFF81 2E 10 06 FFFFFF81 26 FFFFFF81 27 FFFFFF81 29 0D 01 3C
   09 03 FFFFFF81 28 3C 02 03 53 65 71 10 03 1C FFFFFF81 2A 09
   03 FFFFFF81 2B 04 02 09 50 72 6F 63 49 6E 73 74 72 08
   07 FFFFFF81 2D FFFFFF81 22 FFFFFFC0 00 57 01 06 74 61 72 67 65 74
   08 07 FFFFFF81 2F FFFFFF81 22 FFFFFFC0 00 57 01 04 64 61 74 61 08
   08 FFFFFF81 31 00 FFFFFFC2 FFFFFF80 FFFFFF84 00 78 01 13 6E 6F 72 6D 61
   6C 69 7A 65 57 68 69 74 65 73 70 61 63 65 08 07
   FFFFFF81 33 00 FFFFFFA0 FFFFFF80 04 79 01 14 6E 6F 72 6D 61 6C 69
   7A 65 57 68 69 74 65 73 70 61 63 65 20 08 07 FFFFFF81
   35 00 FFFFFF84 20 FFFFFF81 36 01 0A 63 68 61 72 61 63 74 65
   72 73 14 07 2E FFFFFF81 37 FFFFFF81 3F FFFFFF81 44 08 08 FFFFFF81 38 FFFFFF81
   34 FFFFFFC0 00 FFFFFF81 39 01 02 63 68 10 05 20 FFFFFF81 3A FFFFFF81 3C
   09 03 FFFFFF81 3B 06 02 05 41 72 72 61 79 10 03 20 FFFFFF81
   3D 09 03 FFFFFF81 3E 06 02 04 43 68 61 72 08 08 FFFFFF81 40
   FFFFFF81 34 FFFFFFC0 00 FFFFFF81 41 01 06 6F 66 66 73 65 74 10 03
   20 FFFFFF81 42 09 03 FFFFFF81 43 06 02 03 49 6E 74 08 08 FFFFFF81
   45 FFFFFF81 34 FFFFFFC0 00 FFFFFF81 41 01 06 6C 65 6E 67 74 68 08
   07 FFFFFF81 47 00 FFFFFF84 04 FFFFFF81 48 01 09 73 70 6C 69 74 4E
   61 6D 65 14 04 FFFFFF81 49 FFFFFF81 4C 10 05 20 FFFFFF81 4A 57 57
   09 03 FFFFFF81 4B 06 02 06 54 75 70 6C 65 32 08 07 FFFFFF81
   4D FFFFFF81 46 FFFFFFC0 00 57 01 01 73 08 07 FFFFFF81 4F 00 FFFFFF84 20
   FFFFFF81 50 01 0C 73 74 61 72 74 45 6C 65 6D 65 6E 74
   14 09 2E FFFFFF81 51 FFFFFF81 53 FFFFFF81 55 FFFFFF81 57 08 07 FFFFFF81 52 FFFFFF81
   4E FFFFFFC0 00 57 01 03 75 72 69 08 07 FFFFFF81 54 FFFFFF81 4E FFFFFFC0
   00 57 01 0A 5F 6C 6F 63 61 6C 4E 61 6D 65 08 07
   FFFFFF81 56 FFFFFF81 4E FFFFFFC0 00 57 01 05 71 6E 61 6D 65 08 08
   FFFFFF81 58 FFFFFF81 4E FFFFFFC0 00 FFFFFF81 59 01 0A 61 74 74 72 69 62
   75 74 65 73 10 04 FFFFFF81 5A FFFFFF81 5B 0D 01 0E 09 03 FFFFFF81
   5C 0E 02 0A 41 74 74 72 69 62 75 74 65 73 08 07
   FFFFFF81 5E 00 FFFFFF84 00 FFFFFF81 5F 01 0B 63 61 70 74 75 72 65
   54 65 78 74 14 01 2E 08 07 FFFFFF81 61 00 FFFFFF84 20 FFFFFF81 62
   01 0A 65 6E 64 45 6C 65 6D 65 6E 74 14 07 2E FFFFFF81
   63 FFFFFF81 64 FFFFFF81 65 08 07 FFFFFF81 52 FFFFFF81 60 FFFFFFC0 00 57 08 07
   FFFFFF81 54 FFFFFF81 60 FFFFFFC0 00 57 08 07 FFFFFF81 56 FFFFFF81 60 FFFFFFC0 00 57
   08 07 FFFFFF81 67 00 FFFFFF84 20 FFFFFF81 68 01 15 70 72 6F 63 65
   73 73 69 6E 67 49 6E 73 74 72 75 63 74 69 6F 6E
   14 05 2E FFFFFF81 69 FFFFFF81 6A 08 07 FFFFFF81 2D FFFFFF81 66 FFFFFFC0 00 57
   08 07 FFFFFF81 2F FFFFFF81 66 FFFFFFC0 00 57 
  InnerClass: 
   public abstract #448= #270 of #447; //ByOne=class scala/collection/immutable/Range$ByOne of class scala/collection/immutable/Range
   public #451= #314 of #450; //ofChar=class scala/collection/mutable/ArrayOps$ofChar of class scala/collection/mutable/ArrayOps
   public final #452= #101 of #115; //$anon$13=class scala/collection/Iterator$$anon$13 of class scala/collection/Iterator
   public final #453= #106 of #39; //$anonfun$2=class scala/xml/parsing/FactoryAdapter$$anonfun$2 of class scala/xml/parsing/FactoryAdapter
   public final #454= #96 of #39; //$anonfun$1=class scala/xml/parsing/FactoryAdapter$$anonfun$1 of class scala/xml/parsing/FactoryAdapter
   public final #455= #352 of #39; //$anonfun$characters$1=class scala/xml/parsing/FactoryAdapter$$anonfun$characters$1 of class scala/xml/parsing/FactoryAdapter
   public final #456= #272 of #39; //$anonfun$startElement$1=class scala/xml/parsing/FactoryAdapter$$anonfun$startElement$1 of class scala/xml/parsing/FactoryAdapter
  minor version: 0
  major version: 49
  Constant pool:
const #1 = Asciz	SourceFile;
const #2 = Asciz	FactoryAdapter.scala;
const #3 = Asciz	scala$xml$factory$XMLLoader$$saxFactory;
const #4 = Asciz	Ljavax/xml/parsers/SAXParserFactory;;
const #5 = Asciz	normalizeWhitespace;
const #6 = Asciz	Z;
const #7 = Asciz	capture;
const #8 = Asciz	curTag;
const #9 = Asciz	Ljava/lang/String;;
const #10 = Asciz	scopeStack;
const #11 = Asciz	Lscala/collection/mutable/Stack;;
const #12 = Asciz	Lscala/collection/mutable/Stack<Lscala/xml/NamespaceBinding;>;;
const #13 = Asciz	Signature;
const #14 = Asciz	tagStack;
const #15 = Asciz	Lscala/collection/mutable/Stack<Ljava/lang/String;>;;
const #16 = Asciz	hStack;
const #17 = Asciz	Lscala/collection/mutable/Stack<Lscala/xml/Node;>;;
const #18 = Asciz	attribStack;
const #19 = Asciz	Lscala/collection/mutable/Stack<Lscala/xml/MetaData;>;;
const #20 = Asciz	buffer;
const #21 = Asciz	Lscala/collection/mutable/StringBuilder;;
const #22 = Asciz	rootElem;
const #23 = Asciz	Lscala/xml/Node;;
const #24 = Asciz	<init>;
const #25 = Asciz	()V;
const #26 = Asciz	Code;
const #27 = Asciz	LineNumberTable;
const #28 = Asciz	org/xml/sax/helpers/DefaultHandler;
const #29 = class	#28;	//  org/xml/sax/helpers/DefaultHandler
const #30 = NameAndType	#24:#25;//  "<init>":()V
const #31 = Method	#29.#30;	//  org/xml/sax/helpers/DefaultHandler."<init>":()V
const #32 = Asciz	scala/xml/factory/XMLLoader$class;
const #33 = class	#32;	//  scala/xml/factory/XMLLoader$class
const #34 = Asciz	$init$;
const #35 = Asciz	(Lscala/xml/factory/XMLLoader;)V;
const #36 = NameAndType	#34:#35;//  $init$:(Lscala/xml/factory/XMLLoader;)V
const #37 = Method	#33.#36;	//  scala/xml/factory/XMLLoader$class.$init$:(Lscala/xml/factory/XMLLoader;)V
const #38 = Asciz	scala/xml/parsing/FactoryAdapter;
const #39 = class	#38;	//  scala/xml/parsing/FactoryAdapter
const #40 = NameAndType	#22:#23;//  rootElem:Lscala/xml/Node;
const #41 = Field	#39.#40;	//  scala/xml/parsing/FactoryAdapter.rootElem:Lscala/xml/Node;
const #42 = Asciz	scala/collection/mutable/StringBuilder;
const #43 = class	#42;	//  scala/collection/mutable/StringBuilder
const #44 = Method	#43.#30;	//  scala/collection/mutable/StringBuilder."<init>":()V
const #45 = NameAndType	#20:#21;//  buffer:Lscala/collection/mutable/StringBuilder;
const #46 = Field	#39.#45;	//  scala/xml/parsing/FactoryAdapter.buffer:Lscala/collection/mutable/StringBuilder;
const #47 = Asciz	scala/collection/mutable/Stack;
const #48 = class	#47;	//  scala/collection/mutable/Stack
const #49 = Method	#48.#30;	//  scala/collection/mutable/Stack."<init>":()V
const #50 = NameAndType	#18:#11;//  attribStack:Lscala/collection/mutable/Stack;
const #51 = Field	#39.#50;	//  scala/xml/parsing/FactoryAdapter.attribStack:Lscala/collection/mutable/Stack;
const #52 = NameAndType	#16:#11;//  hStack:Lscala/collection/mutable/Stack;
const #53 = Field	#39.#52;	//  scala/xml/parsing/FactoryAdapter.hStack:Lscala/collection/mutable/Stack;
const #54 = NameAndType	#14:#11;//  tagStack:Lscala/collection/mutable/Stack;
const #55 = Field	#39.#54;	//  scala/xml/parsing/FactoryAdapter.tagStack:Lscala/collection/mutable/Stack;
const #56 = NameAndType	#10:#11;//  scopeStack:Lscala/collection/mutable/Stack;
const #57 = Field	#39.#56;	//  scala/xml/parsing/FactoryAdapter.scopeStack:Lscala/collection/mutable/Stack;
const #58 = NameAndType	#8:#9;//  curTag:Ljava/lang/String;
const #59 = Field	#39.#58;	//  scala/xml/parsing/FactoryAdapter.curTag:Ljava/lang/String;
const #60 = NameAndType	#7:#6;//  capture:Z
const #61 = Field	#39.#60;	//  scala/xml/parsing/FactoryAdapter.capture:Z
const #62 = NameAndType	#5:#6;//  normalizeWhitespace:Z
const #63 = Field	#39.#62;	//  scala/xml/parsing/FactoryAdapter.normalizeWhitespace:Z
const #64 = Asciz	processingInstruction;
const #65 = Asciz	(Ljava/lang/String;Ljava/lang/String;)V;
const #66 = Asciz	()Lscala/collection/mutable/Stack;;
const #67 = NameAndType	#16:#66;//  hStack:()Lscala/collection/mutable/Stack;
const #68 = Method	#39.#67;	//  scala/xml/parsing/FactoryAdapter.hStack:()Lscala/collection/mutable/Stack;
const #69 = Asciz	createProcInstr;
const #70 = Asciz	(Ljava/lang/String;Ljava/lang/String;)Lscala/collection/Seq;;
const #71 = NameAndType	#69:#70;//  createProcInstr:(Ljava/lang/String;Ljava/lang/String;)Lscala/collection/Seq;
const #72 = Method	#39.#71;	//  scala/xml/parsing/FactoryAdapter.createProcInstr:(Ljava/lang/String;Ljava/lang/String;)Lscala/collection/Seq;
const #73 = Asciz	pushAll;
const #74 = Asciz	(Lscala/collection/Traversable;)Lscala/collection/mutable/Stack;;
const #75 = NameAndType	#73:#74;//  pushAll:(Lscala/collection/Traversable;)Lscala/collection/mutable/Stack;
const #76 = Method	#48.#75;	//  scala/collection/mutable/Stack.pushAll:(Lscala/collection/Traversable;)Lscala/collection/mutable/Stack;
const #77 = Asciz	this;
const #78 = Asciz	Lscala/xml/parsing/FactoryAdapter;;
const #79 = Asciz	target;
const #80 = Asciz	data;
const #81 = Asciz	LocalVariableTable;
const #82 = Asciz	endElement;
const #83 = Asciz	(Ljava/lang/String;Ljava/lang/String;Ljava/lang/String;)V;
const #84 = Asciz	captureText;
const #85 = NameAndType	#84:#25;//  captureText:()V
const #86 = Method	#39.#85;	//  scala/xml/parsing/FactoryAdapter.captureText:()V
const #87 = NameAndType	#18:#66;//  attribStack:()Lscala/collection/mutable/Stack;
const #88 = Method	#39.#87;	//  scala/xml/parsing/FactoryAdapter.attribStack:()Lscala/collection/mutable/Stack;
const #89 = Asciz	pop;
const #90 = Asciz	()Ljava/lang/Object;;
const #91 = NameAndType	#89:#90;//  pop:()Ljava/lang/Object;
const #92 = Method	#48.#91;	//  scala/collection/mutable/Stack.pop:()Ljava/lang/Object;
const #93 = Asciz	scala/xml/MetaData;
const #94 = class	#93;	//  scala/xml/MetaData
const #95 = Asciz	scala/xml/parsing/FactoryAdapter$$anonfun$1;
const #96 = class	#95;	//  scala/xml/parsing/FactoryAdapter$$anonfun$1
const #97 = Asciz	(Lscala/xml/parsing/FactoryAdapter;)V;
const #98 = NameAndType	#24:#97;//  "<init>":(Lscala/xml/parsing/FactoryAdapter;)V
const #99 = Method	#96.#98;	//  scala/xml/parsing/FactoryAdapter$$anonfun$1."<init>":(Lscala/xml/parsing/FactoryAdapter;)V
const #100 = Asciz	scala/collection/Iterator$$anon$13;
const #101 = class	#100;	//  scala/collection/Iterator$$anon$13
const #102 = Asciz	(Lscala/Function0;)V;
const #103 = NameAndType	#24:#102;//  "<init>":(Lscala/Function0;)V
const #104 = Method	#101.#103;	//  scala/collection/Iterator$$anon$13."<init>":(Lscala/Function0;)V
const #105 = Asciz	scala/xml/parsing/FactoryAdapter$$anonfun$2;
const #106 = class	#105;	//  scala/xml/parsing/FactoryAdapter$$anonfun$2
const #107 = Method	#106.#98;	//  scala/xml/parsing/FactoryAdapter$$anonfun$2."<init>":(Lscala/xml/parsing/FactoryAdapter;)V
const #108 = Asciz	scala/collection/Iterator$class;
const #109 = class	#108;	//  scala/collection/Iterator$class
const #110 = Asciz	takeWhile;
const #111 = Asciz	(Lscala/collection/Iterator;Lscala/Function1;)Lscala/collection/Iterator;;
const #112 = NameAndType	#110:#111;//  takeWhile:(Lscala/collection/Iterator;Lscala/Function1;)Lscala/collection/Iterator;
const #113 = Method	#109.#112;	//  scala/collection/Iterator$class.takeWhile:(Lscala/collection/Iterator;Lscala/Function1;)Lscala/collection/Iterator;
const #114 = Asciz	scala/collection/Iterator;
const #115 = class	#114;	//  scala/collection/Iterator
const #116 = Asciz	toList;
const #117 = Asciz	()Lscala/collection/immutable/List;;
const #118 = NameAndType	#116:#117;//  toList:()Lscala/collection/immutable/List;
const #119 = InterfaceMethod	#115.#118;	//  scala/collection/Iterator.toList:()Lscala/collection/immutable/List;
const #120 = Asciz	scala/collection/immutable/List;
const #121 = class	#120;	//  scala/collection/immutable/List
const #122 = Asciz	reverse;
const #123 = NameAndType	#122:#117;//  reverse:()Lscala/collection/immutable/List;
const #124 = Method	#121.#123;	//  scala/collection/immutable/List.reverse:()Lscala/collection/immutable/List;
const #125 = Asciz	scala$xml$parsing$FactoryAdapter$$splitName;
const #126 = Asciz	(Ljava/lang/String;)Lscala/Tuple2;;
const #127 = NameAndType	#125:#126;//  scala$xml$parsing$FactoryAdapter$$splitName:(Ljava/lang/String;)Lscala/Tuple2;
const #128 = Method	#39.#127;	//  scala/xml/parsing/FactoryAdapter.scala$xml$parsing$FactoryAdapter$$splitName:(Ljava/lang/String;)Lscala/Tuple2;
const #129 = Asciz	scala/Tuple2;
const #130 = class	#129;	//  scala/Tuple2
const #131 = Asciz	_1;
const #132 = NameAndType	#131:#90;//  _1:()Ljava/lang/Object;
const #133 = Method	#130.#132;	//  scala/Tuple2._1:()Ljava/lang/Object;
const #134 = Asciz	java/lang/String;
const #135 = class	#134;	//  java/lang/String
const #136 = Asciz	_2;
const #137 = NameAndType	#136:#90;//  _2:()Ljava/lang/Object;
const #138 = Method	#130.#137;	//  scala/Tuple2._2:()Ljava/lang/Object;
const #139 = Asciz	(Ljava/lang/Object;Ljava/lang/Object;)V;
const #140 = NameAndType	#24:#139;//  "<init>":(Ljava/lang/Object;Ljava/lang/Object;)V
const #141 = Method	#130.#140;	//  scala/Tuple2."<init>":(Ljava/lang/Object;Ljava/lang/Object;)V
const #142 = NameAndType	#10:#66;//  scopeStack:()Lscala/collection/mutable/Stack;
const #143 = Method	#39.#142;	//  scala/xml/parsing/FactoryAdapter.scopeStack:()Lscala/collection/mutable/Stack;
const #144 = Asciz	scala/xml/NamespaceBinding;
const #145 = class	#144;	//  scala/xml/NamespaceBinding
const #146 = Asciz	createNode;
const #147 = Asciz	(Ljava/lang/String;Ljava/lang/String;Lscala/xml/MetaData;Lscala/xml/NamespaceBinding;Lscala/collection/immutable/List;)Lscala/xml/Node;;
const #148 = NameAndType	#146:#147;//  createNode:(Ljava/lang/String;Ljava/lang/String;Lscala/xml/MetaData;Lscala/xml/NamespaceBinding;Lscala/collection/immutable/List;)Lscala/xml/Node;
const #149 = Method	#39.#148;	//  scala/xml/parsing/FactoryAdapter.createNode:(Ljava/lang/String;Ljava/lang/String;Lscala/xml/MetaData;Lscala/xml/NamespaceBinding;Lscala/collection/immutable/List;)Lscala/xml/Node;
const #150 = Asciz	rootElem_$eq;
const #151 = Asciz	(Lscala/xml/Node;)V;
const #152 = NameAndType	#150:#151;//  rootElem_$eq:(Lscala/xml/Node;)V
const #153 = Method	#39.#152;	//  scala/xml/parsing/FactoryAdapter.rootElem_$eq:(Lscala/xml/Node;)V
const #154 = Asciz	()Lscala/xml/Node;;
const #155 = NameAndType	#22:#154;//  rootElem:()Lscala/xml/Node;
const #156 = Method	#39.#155;	//  scala/xml/parsing/FactoryAdapter.rootElem:()Lscala/xml/Node;
const #157 = Asciz	push;
const #158 = Asciz	(Ljava/lang/Object;)Lscala/collection/mutable/Stack;;
const #159 = NameAndType	#157:#158;//  push:(Ljava/lang/Object;)Lscala/collection/mutable/Stack;
const #160 = Method	#48.#159;	//  scala/collection/mutable/Stack.push:(Ljava/lang/Object;)Lscala/collection/mutable/Stack;
const #161 = NameAndType	#14:#66;//  tagStack:()Lscala/collection/mutable/Stack;
const #162 = Method	#39.#161;	//  scala/xml/parsing/FactoryAdapter.tagStack:()Lscala/collection/mutable/Stack;
const #163 = Asciz	curTag_$eq;
const #164 = Asciz	(Ljava/lang/String;)V;
const #165 = NameAndType	#163:#164;//  curTag_$eq:(Ljava/lang/String;)V
const #166 = Method	#39.#165;	//  scala/xml/parsing/FactoryAdapter.curTag_$eq:(Ljava/lang/String;)V
const #167 = Asciz	()Ljava/lang/String;;
const #168 = NameAndType	#8:#167;//  curTag:()Ljava/lang/String;
const #169 = Method	#39.#168;	//  scala/xml/parsing/FactoryAdapter.curTag:()Ljava/lang/String;
const #170 = Asciz	java/lang/Object;
const #171 = class	#170;	//  java/lang/Object
const #172 = Asciz	equals;
const #173 = Asciz	(Ljava/lang/Object;)Z;
const #174 = NameAndType	#172:#173;//  equals:(Ljava/lang/Object;)Z
const #175 = Method	#171.#174;	//  java/lang/Object.equals:(Ljava/lang/Object;)Z
const #176 = Asciz	nodeContainsText;
const #177 = Asciz	(Ljava/lang/String;)Z;
const #178 = NameAndType	#176:#177;//  nodeContainsText:(Ljava/lang/String;)Z
const #179 = Method	#39.#178;	//  scala/xml/parsing/FactoryAdapter.nodeContainsText:(Ljava/lang/String;)Z
const #180 = Asciz	capture_$eq;
const #181 = Asciz	(Z)V;
const #182 = NameAndType	#180:#181;//  capture_$eq:(Z)V
const #183 = Method	#39.#182;	//  scala/xml/parsing/FactoryAdapter.capture_$eq:(Z)V
const #184 = Asciz	scala/MatchError;
const #185 = class	#184;	//  scala/MatchError
const #186 = Asciz	toString;
const #187 = NameAndType	#186:#167;//  toString:()Ljava/lang/String;
const #188 = Method	#130.#187;	//  scala/Tuple2.toString:()Ljava/lang/String;
const #189 = NameAndType	#24:#164;//  "<init>":(Ljava/lang/String;)V
const #190 = Method	#185.#189;	//  scala/MatchError."<init>":(Ljava/lang/String;)V
const #191 = Asciz	uri;
const #192 = Asciz	_localName;
const #193 = Asciz	qname;
const #194 = Asciz	temp5;
const #195 = Asciz	temp6;
const #196 = Asciz	pre;
const #197 = Asciz	localName;
const #198 = Asciz	metaData;
const #199 = Asciz	Lscala/xml/MetaData;;
const #200 = Asciz	scp;
const #201 = Asciz	Lscala/xml/NamespaceBinding;;
const #202 = Asciz	v;
const #203 = Asciz	Lscala/collection/immutable/List;;
const #204 = Asciz	temp4;
const #205 = Asciz	Lscala/Tuple2;;
const #206 = Asciz	()Z;
const #207 = NameAndType	#7:#206;//  capture:()Z
const #208 = Method	#39.#207;	//  scala/xml/parsing/FactoryAdapter.capture:()Z
const #209 = Asciz	()Lscala/collection/mutable/StringBuilder;;
const #210 = NameAndType	#20:#209;//  buffer:()Lscala/collection/mutable/StringBuilder;
const #211 = Method	#39.#210;	//  scala/xml/parsing/FactoryAdapter.buffer:()Lscala/collection/mutable/StringBuilder;
const #212 = Asciz	length;
const #213 = Asciz	()I;
const #214 = NameAndType	#212:#213;//  length:()I
const #215 = Method	#43.#214;	//  scala/collection/mutable/StringBuilder.length:()I
const #216 = Method	#43.#187;	//  scala/collection/mutable/StringBuilder.toString:()Ljava/lang/String;
const #217 = Asciz	createText;
const #218 = Asciz	(Ljava/lang/String;)Lscala/xml/Text;;
const #219 = NameAndType	#217:#218;//  createText:(Ljava/lang/String;)Lscala/xml/Text;
const #220 = Method	#39.#219;	//  scala/xml/parsing/FactoryAdapter.createText:(Ljava/lang/String;)Lscala/xml/Text;
const #221 = Asciz	scala/runtime/BoxedUnit;
const #222 = class	#221;	//  scala/runtime/BoxedUnit
const #223 = Asciz	UNIT;
const #224 = Asciz	Lscala/runtime/BoxedUnit;;
const #225 = NameAndType	#223:#224;//  UNIT:Lscala/runtime/BoxedUnit;
const #226 = Field	#222.#225;	//  scala/runtime/BoxedUnit.UNIT:Lscala/runtime/BoxedUnit;
const #227 = Asciz	setLength;
const #228 = Asciz	(I)V;
const #229 = NameAndType	#227:#228;//  setLength:(I)V
const #230 = Method	#43.#229;	//  scala/collection/mutable/StringBuilder.setLength:(I)V
const #231 = Asciz	startElement;
const #232 = Asciz	(Ljava/lang/String;Ljava/lang/String;Ljava/lang/String;Lorg/xml/sax/Attributes;)V;
const #233 = Asciz	scala/runtime/ObjectRef;
const #234 = class	#233;	//  scala/runtime/ObjectRef
const #235 = Asciz	scala/xml/Null$;
const #236 = class	#235;	//  scala/xml/Null$
const #237 = Asciz	MODULE$;
const #238 = Asciz	Lscala/xml/Null$;;
const #239 = NameAndType	#237:#238;//  MODULE$:Lscala/xml/Null$;
const #240 = Field	#236.#239;	//  scala/xml/Null$.MODULE$:Lscala/xml/Null$;
const #241 = Asciz	(Ljava/lang/Object;)V;
const #242 = NameAndType	#24:#241;//  "<init>":(Ljava/lang/Object;)V
const #243 = Method	#234.#242;	//  scala/runtime/ObjectRef."<init>":(Ljava/lang/Object;)V
const #244 = Asciz	scala/xml/TopScope$;
const #245 = class	#244;	//  scala/xml/TopScope$
const #246 = Asciz	Lscala/xml/TopScope$;;
const #247 = NameAndType	#237:#246;//  MODULE$:Lscala/xml/TopScope$;
const #248 = Field	#245.#247;	//  scala/xml/TopScope$.MODULE$:Lscala/xml/TopScope$;
const #249 = Asciz	scala/Predef$;
const #250 = class	#249;	//  scala/Predef$
const #251 = Asciz	Lscala/Predef$;;
const #252 = NameAndType	#237:#251;//  MODULE$:Lscala/Predef$;
const #253 = Field	#250.#252;	//  scala/Predef$.MODULE$:Lscala/Predef$;
const #254 = Asciz	intWrapper;
const #255 = Asciz	(I)Lscala/runtime/RichInt;;
const #256 = NameAndType	#254:#255;//  intWrapper:(I)Lscala/runtime/RichInt;
const #257 = Method	#250.#256;	//  scala/Predef$.intWrapper:(I)Lscala/runtime/RichInt;
const #258 = Asciz	org/xml/sax/Attributes;
const #259 = class	#258;	//  org/xml/sax/Attributes
const #260 = Asciz	getLength;
const #261 = NameAndType	#260:#213;//  getLength:()I
const #262 = InterfaceMethod	#259.#261;	//  org/xml/sax/Attributes.getLength:()I
const #263 = Asciz	scala/runtime/RichInt;
const #264 = class	#263;	//  scala/runtime/RichInt
const #265 = Asciz	until;
const #266 = Asciz	(I)Lscala/collection/immutable/Range;;
const #267 = NameAndType	#265:#266;//  until:(I)Lscala/collection/immutable/Range;
const #268 = Method	#264.#267;	//  scala/runtime/RichInt.until:(I)Lscala/collection/immutable/Range;
const #269 = Asciz	scala/collection/immutable/Range$ByOne;
const #270 = class	#269;	//  scala/collection/immutable/Range$ByOne
const #271 = Asciz	scala/xml/parsing/FactoryAdapter$$anonfun$startElement$1;
const #272 = class	#271;	//  scala/xml/parsing/FactoryAdapter$$anonfun$startElement$1
const #273 = Asciz	(Lscala/xml/parsing/FactoryAdapter;Lorg/xml/sax/Attributes;Lscala/runtime/ObjectRef;Lscala/runtime/ObjectRef;)V;
const #274 = NameAndType	#24:#273;//  "<init>":(Lscala/xml/parsing/FactoryAdapter;Lorg/xml/sax/Attributes;Lscala/runtime/ObjectRef;Lscala/runtime/ObjectRef;)V
const #275 = Method	#272.#274;	//  scala/xml/parsing/FactoryAdapter$$anonfun$startElement$1."<init>":(Lscala/xml/parsing/FactoryAdapter;Lorg/xml/sax/Attributes;Lscala/runtime/ObjectRef;Lscala/runtime/ObjectRef;)V
const #276 = Asciz	foreach;
const #277 = Asciz	(Lscala/Function1;)V;
const #278 = NameAndType	#276:#277;//  foreach:(Lscala/Function1;)V
const #279 = InterfaceMethod	#270.#278;	//  scala/collection/immutable/Range$ByOne.foreach:(Lscala/Function1;)V
const #280 = Asciz	elem;
const #281 = Asciz	Ljava/lang/Object;;
const #282 = NameAndType	#280:#281;//  elem:Ljava/lang/Object;
const #283 = Field	#234.#282;	//  scala/runtime/ObjectRef.elem:Ljava/lang/Object;
const #284 = Asciz	attributes$1;
const #285 = Asciz	Lorg/xml/sax/Attributes;;
const #286 = Asciz	m$1;
const #287 = Asciz	Lscala/runtime/ObjectRef;;
const #288 = Asciz	scpe$1;
const #289 = int	58;
const #290 = Asciz	indexOf;
const #291 = Asciz	(I)I;
const #292 = NameAndType	#290:#291;//  indexOf:(I)I
const #293 = Method	#135.#292;	//  java/lang/String.indexOf:(I)I
const #294 = Asciz	scala/collection/immutable/StringOps;
const #295 = class	#294;	//  scala/collection/immutable/StringOps
const #296 = Method	#295.#189;	//  scala/collection/immutable/StringOps."<init>":(Ljava/lang/String;)V
const #297 = Asciz	scala/collection/IndexedSeqLike;
const #298 = class	#297;	//  scala/collection/IndexedSeqLike
const #299 = Asciz	take;
const #300 = Asciz	(I)Ljava/lang/Object;;
const #301 = NameAndType	#299:#300;//  take:(I)Ljava/lang/Object;
const #302 = InterfaceMethod	#298.#301;	//  scala/collection/IndexedSeqLike.take:(I)Ljava/lang/Object;
const #303 = Asciz	drop;
const #304 = NameAndType	#303:#300;//  drop:(I)Ljava/lang/Object;
const #305 = InterfaceMethod	#298.#304;	//  scala/collection/IndexedSeqLike.drop:(I)Ljava/lang/Object;
const #306 = Asciz	s;
const #307 = Asciz	idx;
const #308 = Asciz	I;
const #309 = Asciz	characters;
const #310 = Asciz	([CII)V;
const #311 = NameAndType	#5:#206;//  normalizeWhitespace:()Z
const #312 = Method	#39.#311;	//  scala/xml/parsing/FactoryAdapter.normalizeWhitespace:()Z
const #313 = Asciz	scala/collection/mutable/ArrayOps$ofChar;
const #314 = class	#313;	//  scala/collection/mutable/ArrayOps$ofChar
const #315 = Asciz	([C)V;
const #316 = NameAndType	#24:#315;//  "<init>":([C)V
const #317 = Method	#314.#316;	//  scala/collection/mutable/ArrayOps$ofChar."<init>":([C)V
const #318 = Asciz	slice;
const #319 = Asciz	(II)Ljava/lang/Object;;
const #320 = NameAndType	#318:#319;//  slice:(II)Ljava/lang/Object;
const #321 = InterfaceMethod	#298.#320;	//  scala/collection/IndexedSeqLike.slice:(II)Ljava/lang/Object;
const #322 = Asciz	[C;
const #323 = class	#322;	//  "[C"
const #324 = Asciz	iterator;
const #325 = Asciz	()Lscala/collection/Iterator;;
const #326 = NameAndType	#324:#325;//  iterator:()Lscala/collection/Iterator;
const #327 = InterfaceMethod	#298.#326;	//  scala/collection/IndexedSeqLike.iterator:()Lscala/collection/Iterator;
const #328 = Asciz	hasNext;
const #329 = NameAndType	#328:#206;//  hasNext:()Z
const #330 = InterfaceMethod	#115.#329;	//  scala/collection/Iterator.hasNext:()Z
const #331 = Asciz	next;
const #332 = NameAndType	#331:#90;//  next:()Ljava/lang/Object;
const #333 = InterfaceMethod	#115.#332;	//  scala/collection/Iterator.next:()Ljava/lang/Object;
const #334 = Asciz	scala/runtime/BoxesRunTime;
const #335 = class	#334;	//  scala/runtime/BoxesRunTime
const #336 = Asciz	unboxToChar;
const #337 = Asciz	(Ljava/lang/Object;)C;
const #338 = NameAndType	#336:#337;//  unboxToChar:(Ljava/lang/Object;)C
const #339 = Method	#335.#338;	//  scala/runtime/BoxesRunTime.unboxToChar:(Ljava/lang/Object;)C
const #340 = Asciz	java/lang/Character;
const #341 = class	#340;	//  java/lang/Character
const #342 = Asciz	isWhitespace;
const #343 = Asciz	(C)Z;
const #344 = NameAndType	#342:#343;//  isWhitespace:(C)Z
const #345 = Method	#341.#344;	//  java/lang/Character.isWhitespace:(C)Z
const #346 = int	32;
const #347 = Asciz	append;
const #348 = Asciz	(C)Lscala/collection/mutable/StringBuilder;;
const #349 = NameAndType	#347:#348;//  append:(C)Lscala/collection/mutable/StringBuilder;
const #350 = Method	#43.#349;	//  scala/collection/mutable/StringBuilder.append:(C)Lscala/collection/mutable/StringBuilder;
const #351 = Asciz	scala/xml/parsing/FactoryAdapter$$anonfun$characters$1;
const #352 = class	#351;	//  scala/xml/parsing/FactoryAdapter$$anonfun$characters$1
const #353 = Method	#352.#98;	//  scala/xml/parsing/FactoryAdapter$$anonfun$characters$1."<init>":(Lscala/xml/parsing/FactoryAdapter;)V
const #354 = Asciz	dropWhile;
const #355 = Asciz	(Lscala/Function1;)Lscala/collection/Iterator;;
const #356 = NameAndType	#354:#355;//  dropWhile:(Lscala/Function1;)Lscala/collection/Iterator;
const #357 = InterfaceMethod	#115.#356;	//  scala/collection/Iterator.dropWhile:(Lscala/Function1;)Lscala/collection/Iterator;
const #358 = Asciz	appendAll;
const #359 = Asciz	([CII)Lscala/collection/mutable/StringBuilder;;
const #360 = NameAndType	#358:#359;//  appendAll:([CII)Lscala/collection/mutable/StringBuilder;
const #361 = Method	#43.#360;	//  scala/collection/mutable/StringBuilder.appendAll:([CII)Lscala/collection/mutable/StringBuilder;
const #362 = Asciz	ch;
const #363 = Asciz	offset;
const #364 = Asciz	c;
const #365 = Asciz	C;
const #366 = Asciz	isSpace;
const #367 = Asciz	it;
const #368 = Asciz	Lscala/collection/Iterator;;
const #369 = Asciz	(Ljava/lang/String;Ljava/lang/String;)Lscala/collection/Seq<Lscala/xml/ProcInstr;>;;
const #370 = Asciz	(Ljava/lang/String;Ljava/lang/String;Lscala/xml/MetaData;Lscala/xml/NamespaceBinding;Lscala/collection/immutable/List<Lscala/xml/Node;>;)Lscala/xml/Node;;
const #371 = Asciz	scopeStack_$eq;
const #372 = Asciz	(Lscala/collection/mutable/Stack;)V;
const #373 = Asciz	(Lscala/collection/mutable/Stack<Lscala/xml/NamespaceBinding;>;)V;
const #374 = Asciz	()Lscala/collection/mutable/Stack<Lscala/xml/NamespaceBinding;>;;
const #375 = Asciz	()Lscala/collection/mutable/Stack<Ljava/lang/String;>;;
const #376 = Asciz	()Lscala/collection/mutable/Stack<Lscala/xml/Node;>;;
const #377 = Asciz	()Lscala/collection/mutable/Stack<Lscala/xml/MetaData;>;;
const #378 = Asciz	loadString;
const #379 = Asciz	(Ljava/lang/String;)Lscala/xml/Node;;
const #380 = Asciz	(Lscala/xml/factory/XMLLoader;Ljava/lang/String;)Lscala/xml/Node;;
const #381 = NameAndType	#378:#380;//  loadString:(Lscala/xml/factory/XMLLoader;Ljava/lang/String;)Lscala/xml/Node;
const #382 = Method	#33.#381;	//  scala/xml/factory/XMLLoader$class.loadString:(Lscala/xml/factory/XMLLoader;Ljava/lang/String;)Lscala/xml/Node;
const #383 = Asciz	string;
const #384 = Asciz	load;
const #385 = Asciz	(Lorg/xml/sax/InputSource;)Lscala/xml/Node;;
const #386 = Asciz	(Lscala/xml/factory/XMLLoader;Lorg/xml/sax/InputSource;)Lscala/xml/Node;;
const #387 = NameAndType	#384:#386;//  load:(Lscala/xml/factory/XMLLoader;Lorg/xml/sax/InputSource;)Lscala/xml/Node;
const #388 = Method	#33.#387;	//  scala/xml/factory/XMLLoader$class.load:(Lscala/xml/factory/XMLLoader;Lorg/xml/sax/InputSource;)Lscala/xml/Node;
const #389 = Asciz	source;
const #390 = Asciz	Lorg/xml/sax/InputSource;;
const #391 = NameAndType	#384:#380;//  load:(Lscala/xml/factory/XMLLoader;Ljava/lang/String;)Lscala/xml/Node;
const #392 = Method	#33.#391;	//  scala/xml/factory/XMLLoader$class.load:(Lscala/xml/factory/XMLLoader;Ljava/lang/String;)Lscala/xml/Node;
const #393 = Asciz	sysID;
const #394 = Asciz	(Ljava/io/Reader;)Lscala/xml/Node;;
const #395 = Asciz	(Lscala/xml/factory/XMLLoader;Ljava/io/Reader;)Lscala/xml/Node;;
const #396 = NameAndType	#384:#395;//  load:(Lscala/xml/factory/XMLLoader;Ljava/io/Reader;)Lscala/xml/Node;
const #397 = Method	#33.#396;	//  scala/xml/factory/XMLLoader$class.load:(Lscala/xml/factory/XMLLoader;Ljava/io/Reader;)Lscala/xml/Node;
const #398 = Asciz	reader;
const #399 = Asciz	Ljava/io/Reader;;
const #400 = Asciz	(Ljava/io/InputStream;)Lscala/xml/Node;;
const #401 = Asciz	(Lscala/xml/factory/XMLLoader;Ljava/io/InputStream;)Lscala/xml/Node;;
const #402 = NameAndType	#384:#401;//  load:(Lscala/xml/factory/XMLLoader;Ljava/io/InputStream;)Lscala/xml/Node;
const #403 = Method	#33.#402;	//  scala/xml/factory/XMLLoader$class.load:(Lscala/xml/factory/XMLLoader;Ljava/io/InputStream;)Lscala/xml/Node;
const #404 = Asciz	is;
const #405 = Asciz	Ljava/io/InputStream;;
const #406 = Asciz	loadFile;
const #407 = NameAndType	#406:#380;//  loadFile:(Lscala/xml/factory/XMLLoader;Ljava/lang/String;)Lscala/xml/Node;
const #408 = Method	#33.#407;	//  scala/xml/factory/XMLLoader$class.loadFile:(Lscala/xml/factory/XMLLoader;Ljava/lang/String;)Lscala/xml/Node;
const #409 = Asciz	name;
const #410 = Asciz	(Ljava/io/FileDescriptor;)Lscala/xml/Node;;
const #411 = Asciz	(Lscala/xml/factory/XMLLoader;Ljava/io/FileDescriptor;)Lscala/xml/Node;;
const #412 = NameAndType	#406:#411;//  loadFile:(Lscala/xml/factory/XMLLoader;Ljava/io/FileDescriptor;)Lscala/xml/Node;
const #413 = Method	#33.#412;	//  scala/xml/factory/XMLLoader$class.loadFile:(Lscala/xml/factory/XMLLoader;Ljava/io/FileDescriptor;)Lscala/xml/Node;
const #414 = Asciz	fd;
const #415 = Asciz	Ljava/io/FileDescriptor;;
const #416 = Asciz	(Ljava/io/File;)Lscala/xml/Node;;
const #417 = Asciz	(Lscala/xml/factory/XMLLoader;Ljava/io/File;)Lscala/xml/Node;;
const #418 = NameAndType	#406:#417;//  loadFile:(Lscala/xml/factory/XMLLoader;Ljava/io/File;)Lscala/xml/Node;
const #419 = Method	#33.#418;	//  scala/xml/factory/XMLLoader$class.loadFile:(Lscala/xml/factory/XMLLoader;Ljava/io/File;)Lscala/xml/Node;
const #420 = Asciz	file;
const #421 = Asciz	Ljava/io/File;;
const #422 = Asciz	loadXML;
const #423 = Asciz	(Lorg/xml/sax/InputSource;Ljavax/xml/parsers/SAXParser;)Lscala/xml/Node;;
const #424 = Asciz	(Lscala/xml/factory/XMLLoader;Lorg/xml/sax/InputSource;Ljavax/xml/parsers/SAXParser;)Lscala/xml/Node;;
const #425 = NameAndType	#422:#424;//  loadXML:(Lscala/xml/factory/XMLLoader;Lorg/xml/sax/InputSource;Ljavax/xml/parsers/SAXParser;)Lscala/xml/Node;
const #426 = Method	#33.#425;	//  scala/xml/factory/XMLLoader$class.loadXML:(Lscala/xml/factory/XMLLoader;Lorg/xml/sax/InputSource;Ljavax/xml/parsers/SAXParser;)Lscala/xml/Node;
const #427 = Asciz	parser;
const #428 = Asciz	Ljavax/xml/parsers/SAXParser;;
const #429 = Asciz	()Ljavax/xml/parsers/SAXParser;;
const #430 = Asciz	(Lscala/xml/factory/XMLLoader;)Ljavax/xml/parsers/SAXParser;;
const #431 = NameAndType	#427:#430;//  parser:(Lscala/xml/factory/XMLLoader;)Ljavax/xml/parsers/SAXParser;
const #432 = Method	#33.#431;	//  scala/xml/factory/XMLLoader$class.parser:(Lscala/xml/factory/XMLLoader;)Ljavax/xml/parsers/SAXParser;
const #433 = Asciz	adapter;
const #434 = Asciz	()Lscala/xml/parsing/FactoryAdapter;;
const #435 = Asciz	(Lscala/xml/factory/XMLLoader;)Lscala/xml/parsing/FactoryAdapter;;
const #436 = NameAndType	#433:#435;//  adapter:(Lscala/xml/factory/XMLLoader;)Lscala/xml/parsing/FactoryAdapter;
const #437 = Method	#33.#436;	//  scala/xml/factory/XMLLoader$class.adapter:(Lscala/xml/factory/XMLLoader;)Lscala/xml/parsing/FactoryAdapter;
const #438 = Asciz	scala$xml$factory$XMLLoader$_setter_$scala$xml$factory$XMLLoader$$saxFactory_$eq;
const #439 = Asciz	(Ljavax/xml/parsers/SAXParserFactory;)V;
const #440 = NameAndType	#3:#4;//  scala$xml$factory$XMLLoader$$saxFactory:Ljavax/xml/parsers/SAXParserFactory;
const #441 = Field	#39.#440;	//  scala/xml/parsing/FactoryAdapter.scala$xml$factory$XMLLoader$$saxFactory:Ljavax/xml/parsers/SAXParserFactory;
const #442 = Asciz	()Ljavax/xml/parsers/SAXParserFactory;;
const #443 = Asciz	Lorg/xml/sax/helpers/DefaultHandler;Lscala/xml/factory/XMLLoader<Lscala/xml/Node;>;Lscala/ScalaObject;;
const #444 = Asciz	ScalaSig;
const #445 = Asciz	InnerClasses;
const #446 = Asciz	scala/collection/immutable/Range;
const #447 = class	#446;	//  scala/collection/immutable/Range
const #448 = Asciz	ByOne;
const #449 = Asciz	scala/collection/mutable/ArrayOps;
const #450 = class	#449;	//  scala/collection/mutable/ArrayOps
const #451 = Asciz	ofChar;
const #452 = Asciz	$anon$13;
const #453 = Asciz	$anonfun$2;
const #454 = Asciz	$anonfun$1;
const #455 = Asciz	$anonfun$characters$1;
const #456 = Asciz	$anonfun$startElement$1;
const #457 = Asciz	scala/xml/factory/XMLLoader;
const #458 = class	#457;	//  scala/xml/factory/XMLLoader
const #459 = Asciz	scala/ScalaObject;
const #460 = class	#459;	//  scala/ScalaObject

{
public scala.xml.parsing.FactoryAdapter();
  Code:
   Stack=3, Locals=1, Args_size=1
   0:	aload_0
   1:	invokespecial	#31; //Method org/xml/sax/helpers/DefaultHandler."<init>":()V
   4:	aload_0
   5:	invokestatic	#37; //Method scala/xml/factory/XMLLoader$class.$init$:(Lscala/xml/factory/XMLLoader;)V
   8:	aload_0
   9:	aconst_null
   10:	putfield	#41; //Field rootElem:Lscala/xml/Node;
   13:	aload_0
   14:	new	#43; //class scala/collection/mutable/StringBuilder
   17:	dup
   18:	invokespecial	#44; //Method scala/collection/mutable/StringBuilder."<init>":()V
   21:	putfield	#46; //Field buffer:Lscala/collection/mutable/StringBuilder;
   24:	aload_0
   25:	new	#48; //class scala/collection/mutable/Stack
   28:	dup
   29:	invokespecial	#49; //Method scala/collection/mutable/Stack."<init>":()V
   32:	putfield	#51; //Field attribStack:Lscala/collection/mutable/Stack;
   35:	aload_0
   36:	new	#48; //class scala/collection/mutable/Stack
   39:	dup
   40:	invokespecial	#49; //Method scala/collection/mutable/Stack."<init>":()V
   43:	putfield	#53; //Field hStack:Lscala/collection/mutable/Stack;
   46:	aload_0
   47:	new	#48; //class scala/collection/mutable/Stack
   50:	dup
   51:	invokespecial	#49; //Method scala/collection/mutable/Stack."<init>":()V
   54:	putfield	#55; //Field tagStack:Lscala/collection/mutable/Stack;
   57:	aload_0
   58:	new	#48; //class scala/collection/mutable/Stack
   61:	dup
   62:	invokespecial	#49; //Method scala/collection/mutable/Stack."<init>":()V
   65:	putfield	#57; //Field scopeStack:Lscala/collection/mutable/Stack;
   68:	aload_0
   69:	aconst_null
   70:	putfield	#59; //Field curTag:Ljava/lang/String;
   73:	aload_0
   74:	iconst_0
   75:	putfield	#61; //Field capture:Z
   78:	aload_0
   79:	iconst_0
   80:	putfield	#63; //Field normalizeWhitespace:Z
   83:	return
  LineNumberTable: 
   line 47: 0
   line 49: 8
   line 51: 13
   line 52: 24
   line 53: 35
   line 54: 46
   line 55: 57
   line 57: 68
   line 58: 73
   line 90: 78


public void processingInstruction(java.lang.String, java.lang.String);
  Code:
   Stack=4, Locals=3, Args_size=3
   0:	aload_0
   1:	invokevirtual	#68; //Method hStack:()Lscala/collection/mutable/Stack;
   4:	aload_0
   5:	aload_1
   6:	aload_2
   7:	invokevirtual	#72; //Method createProcInstr:(Ljava/lang/String;Ljava/lang/String;)Lscala/collection/Seq;
   10:	invokevirtual	#76; //Method scala/collection/mutable/Stack.pushAll:(Lscala/collection/Traversable;)Lscala/collection/mutable/Stack;
   13:	pop
   14:	return
  LineNumberTable: 
   line 193: 0

  LocalVariableTable: 
   Start  Length  Slot  Name   Signature
   0      15      0    this       Lscala/xml/parsing/FactoryAdapter;
   0      15      1    target       Ljava/lang/String;
   0      15      2    data       Ljava/lang/String;


public void endElement(java.lang.String, java.lang.String, java.lang.String);
  Code:
   Stack=7, Locals=17, Args_size=4
   0:	aload_0
   1:	invokevirtual	#86; //Method captureText:()V
   4:	aload_0
   5:	invokevirtual	#88; //Method attribStack:()Lscala/collection/mutable/Stack;
   8:	invokevirtual	#92; //Method scala/collection/mutable/Stack.pop:()Ljava/lang/Object;
   11:	checkcast	#94; //class scala/xml/MetaData
   14:	astore	12
   16:	new	#96; //class scala/xml/parsing/FactoryAdapter$$anonfun$1
   19:	dup
   20:	aload_0
   21:	invokespecial	#99; //Method scala/xml/parsing/FactoryAdapter$$anonfun$1."<init>":(Lscala/xml/parsing/FactoryAdapter;)V
   24:	astore	4
   26:	new	#101; //class scala/collection/Iterator$$anon$13
   29:	dup
   30:	aload	4
   32:	invokespecial	#104; //Method scala/collection/Iterator$$anon$13."<init>":(Lscala/Function0;)V
   35:	new	#106; //class scala/xml/parsing/FactoryAdapter$$anonfun$2
   38:	dup
   39:	aload_0
   40:	invokespecial	#107; //Method scala/xml/parsing/FactoryAdapter$$anonfun$2."<init>":(Lscala/xml/parsing/FactoryAdapter;)V
   43:	astore	6
   45:	astore	5
   47:	aload	5
   49:	aload	6
   51:	invokestatic	#113; //Method scala/collection/Iterator$class.takeWhile:(Lscala/collection/Iterator;Lscala/Function1;)Lscala/collection/Iterator;
   54:	invokeinterface	#119,  1; //InterfaceMethod scala/collection/Iterator.toList:()Lscala/collection/immutable/List;
   59:	invokevirtual	#124; //Method scala/collection/immutable/List.reverse:()Lscala/collection/immutable/List;
   62:	astore	14
   64:	aload_0
   65:	aload_3
   66:	invokevirtual	#128; //Method scala$xml$parsing$FactoryAdapter$$splitName:(Ljava/lang/String;)Lscala/Tuple2;
   69:	astore	16
   71:	aload	16
   73:	ifnull	242
   76:	aload	16
   78:	invokevirtual	#133; //Method scala/Tuple2._1:()Ljava/lang/Object;
   81:	checkcast	#135; //class java/lang/String
   84:	astore	7
   86:	aload	16
   88:	invokevirtual	#138; //Method scala/Tuple2._2:()Ljava/lang/Object;
   91:	checkcast	#135; //class java/lang/String
   94:	astore	8
   96:	iconst_1
   97:	ifeq	229
   100:	new	#130; //class scala/Tuple2
   103:	dup
   104:	aload	7
   106:	aload	8
   108:	invokespecial	#141; //Method scala/Tuple2."<init>":(Ljava/lang/Object;Ljava/lang/Object;)V
   111:	astore	9
   113:	aload	9
   115:	invokevirtual	#133; //Method scala/Tuple2._1:()Ljava/lang/Object;
   118:	checkcast	#135; //class java/lang/String
   121:	astore	10
   123:	aload	9
   125:	invokevirtual	#138; //Method scala/Tuple2._2:()Ljava/lang/Object;
   128:	checkcast	#135; //class java/lang/String
   131:	astore	11
   133:	aload_0
   134:	invokevirtual	#143; //Method scopeStack:()Lscala/collection/mutable/Stack;
   137:	invokevirtual	#92; //Method scala/collection/mutable/Stack.pop:()Ljava/lang/Object;
   140:	checkcast	#145; //class scala/xml/NamespaceBinding
   143:	astore	13
   145:	aload_0
   146:	aload_0
   147:	aload	10
   149:	aload	11
   151:	aload	12
   153:	aload	13
   155:	aload	14
   157:	invokevirtual	#149; //Method createNode:(Ljava/lang/String;Ljava/lang/String;Lscala/xml/MetaData;Lscala/xml/NamespaceBinding;Lscala/collection/immutable/List;)Lscala/xml/Node;
   160:	invokevirtual	#153; //Method rootElem_$eq:(Lscala/xml/Node;)V
   163:	aload_0
   164:	invokevirtual	#68; //Method hStack:()Lscala/collection/mutable/Stack;
   167:	aload_0
   168:	invokevirtual	#156; //Method rootElem:()Lscala/xml/Node;
   171:	invokevirtual	#160; //Method scala/collection/mutable/Stack.push:(Ljava/lang/Object;)Lscala/collection/mutable/Stack;
   174:	pop
   175:	aload_0
   176:	aload_0
   177:	invokevirtual	#162; //Method tagStack:()Lscala/collection/mutable/Stack;
   180:	invokevirtual	#92; //Method scala/collection/mutable/Stack.pop:()Ljava/lang/Object;
   183:	checkcast	#135; //class java/lang/String
   186:	invokevirtual	#166; //Method curTag_$eq:(Ljava/lang/String;)V
   189:	aload_0
   190:	aload_0
   191:	invokevirtual	#169; //Method curTag:()Ljava/lang/String;
   194:	dup
   195:	astore	15
   197:	ifnull	224
   200:	aload	15
   202:	aconst_null
   203:	invokevirtual	#175; //Method java/lang/Object.equals:(Ljava/lang/Object;)Z
   206:	ifne	224
   209:	aload_0
   210:	aload_0
   211:	invokevirtual	#169; //Method curTag:()Ljava/lang/String;
   214:	invokevirtual	#179; //Method nodeContainsText:(Ljava/lang/String;)Z
   217:	ifeq	224
   220:	iconst_1
   221:	goto	225
   224:	iconst_0
   225:	invokevirtual	#183; //Method capture_$eq:(Z)V
   228:	return
   229:	new	#185; //class scala/MatchError
   232:	dup
   233:	aload	16
   235:	invokevirtual	#188; //Method scala/Tuple2.toString:()Ljava/lang/String;
   238:	invokespecial	#190; //Method scala/MatchError."<init>":(Ljava/lang/String;)V
   241:	athrow
   242:	new	#185; //class scala/MatchError
   245:	dup
   246:	aload	16
   248:	invokevirtual	#188; //Method scala/Tuple2.toString:()Ljava/lang/String;
   251:	invokespecial	#190; //Method scala/MatchError."<init>":(Ljava/lang/String;)V
   254:	athrow
  LineNumberTable: 
   line 175: 0
   line 176: 4
   line 179: 16
   line 180: 64
   line 21: 96
   line 180: 100
   line 181: 133
   line 184: 145
   line 185: 163
   line 186: 175
   line 187: 189
   line 180: 229

  LocalVariableTable: 
   Start  Length  Slot  Name   Signature
   0      255      0    this       Lscala/xml/parsing/FactoryAdapter;
   0      255      1    uri       Ljava/lang/String;
   0      255      2    _localName       Ljava/lang/String;
   0      255      3    qname       Ljava/lang/String;
   86      114      7    temp5       Ljava/lang/String;
   229      13      7    temp5       Ljava/lang/String;
   96      104      8    temp6       Ljava/lang/String;
   229      13      8    temp6       Ljava/lang/String;
   123      105      10    pre       Ljava/lang/String;
   133      95      11    localName       Ljava/lang/String;
   16      212      12    metaData       Lscala/xml/MetaData;
   229      26      12    metaData       Lscala/xml/MetaData;
   145      83      13    scp       Lscala/xml/NamespaceBinding;
   64      164      14    v       Lscala/collection/immutable/List;
   229      26      14    v       Lscala/collection/immutable/List;
   71      129      16    temp4       Lscala/Tuple2;
   229      26      16    temp4       Lscala/Tuple2;


public void captureText();
  Code:
   Stack=3, Locals=2, Args_size=1
   0:	aload_0
   1:	invokevirtual	#208; //Method capture:()Z
   4:	ifeq	39
   7:	aload_0
   8:	invokevirtual	#211; //Method buffer:()Lscala/collection/mutable/StringBuilder;
   11:	invokevirtual	#215; //Method scala/collection/mutable/StringBuilder.length:()I
   14:	iconst_0
   15:	if_icmple	39
   18:	aload_0
   19:	invokevirtual	#68; //Method hStack:()Lscala/collection/mutable/Stack;
   22:	aload_0
   23:	aload_0
   24:	invokevirtual	#211; //Method buffer:()Lscala/collection/mutable/StringBuilder;
   27:	invokevirtual	#216; //Method scala/collection/mutable/StringBuilder.toString:()Ljava/lang/String;
   30:	invokevirtual	#220; //Method createText:(Ljava/lang/String;)Lscala/xml/Text;
   33:	invokevirtual	#160; //Method scala/collection/mutable/Stack.push:(Ljava/lang/Object;)Lscala/collection/mutable/Stack;
   36:	goto	42
   39:	getstatic	#226; //Field scala/runtime/BoxedUnit.UNIT:Lscala/runtime/BoxedUnit;
   42:	pop
   43:	aload_0
   44:	invokevirtual	#211; //Method buffer:()Lscala/collection/mutable/StringBuilder;
   47:	astore_1
   48:	aload_1
   49:	iconst_0
   50:	invokevirtual	#230; //Method scala/collection/mutable/StringBuilder.setLength:(I)V
   53:	return
  LineNumberTable: 
   line 162: 0
   line 163: 18
   line 162: 39
   line 165: 43

  LocalVariableTable: 
   Start  Length  Slot  Name   Signature
   0      54      0    this       Lscala/xml/parsing/FactoryAdapter;


public void startElement(java.lang.String, java.lang.String, java.lang.String, org.xml.sax.Attributes);
  Code:
   Stack=7, Locals=8, Args_size=5
   0:	aload_0
   1:	invokevirtual	#86; //Method captureText:()V
   4:	aload_0
   5:	invokevirtual	#162; //Method tagStack:()Lscala/collection/mutable/Stack;
   8:	aload_0
   9:	invokevirtual	#169; //Method curTag:()Ljava/lang/String;
   12:	invokevirtual	#160; //Method scala/collection/mutable/Stack.push:(Ljava/lang/Object;)Lscala/collection/mutable/Stack;
   15:	pop
   16:	aload_0
   17:	aload_3
   18:	invokevirtual	#166; //Method curTag_$eq:(Ljava/lang/String;)V
   21:	aload_0
   22:	aload_3
   23:	invokevirtual	#128; //Method scala$xml$parsing$FactoryAdapter$$splitName:(Ljava/lang/String;)Lscala/Tuple2;
   26:	invokevirtual	#138; //Method scala/Tuple2._2:()Ljava/lang/Object;
   29:	checkcast	#135; //class java/lang/String
   32:	astore	5
   34:	aload_0
   35:	aload_0
   36:	aload	5
   38:	invokevirtual	#179; //Method nodeContainsText:(Ljava/lang/String;)Z
   41:	invokevirtual	#183; //Method capture_$eq:(Z)V
   44:	aload_0
   45:	invokevirtual	#68; //Method hStack:()Lscala/collection/mutable/Stack;
   48:	aconst_null
   49:	invokevirtual	#160; //Method scala/collection/mutable/Stack.push:(Ljava/lang/Object;)Lscala/collection/mutable/Stack;
   52:	pop
   53:	new	#234; //class scala/runtime/ObjectRef
   56:	dup
   57:	getstatic	#240; //Field scala/xml/Null$.MODULE$:Lscala/xml/Null$;
   60:	invokespecial	#243; //Method scala/runtime/ObjectRef."<init>":(Ljava/lang/Object;)V
   63:	astore	6
   65:	new	#234; //class scala/runtime/ObjectRef
   68:	dup
   69:	getstatic	#248; //Field scala/xml/TopScope$.MODULE$:Lscala/xml/TopScope$;
   72:	invokespecial	#243; //Method scala/runtime/ObjectRef."<init>":(Ljava/lang/Object;)V
   75:	astore	7
   77:	getstatic	#253; //Field scala/Predef$.MODULE$:Lscala/Predef$;
   80:	iconst_0
   81:	invokevirtual	#257; //Method scala/Predef$.intWrapper:(I)Lscala/runtime/RichInt;
   84:	aload	4
   86:	invokeinterface	#262,  1; //InterfaceMethod org/xml/sax/Attributes.getLength:()I
   91:	invokevirtual	#268; //Method scala/runtime/RichInt.until:(I)Lscala/collection/immutable/Range;
   94:	checkcast	#270; //class scala/collection/immutable/Range$ByOne
   97:	new	#272; //class scala/xml/parsing/FactoryAdapter$$anonfun$startElement$1
   100:	dup
   101:	aload_0
   102:	aload	4
   104:	aload	6
   106:	aload	7
   108:	invokespecial	#275; //Method scala/xml/parsing/FactoryAdapter$$anonfun$startElement$1."<init>":(Lscala/xml/parsing/FactoryAdapter;Lorg/xml/sax/Attributes;Lscala/runtime/ObjectRef;Lscala/runtime/ObjectRef;)V
   111:	invokeinterface	#279,  2; //InterfaceMethod scala/collection/immutable/Range$ByOne.foreach:(Lscala/Function1;)V
   116:	aload_0
   117:	invokevirtual	#143; //Method scopeStack:()Lscala/collection/mutable/Stack;
   120:	aload	7
   122:	getfield	#283; //Field scala/runtime/ObjectRef.elem:Ljava/lang/Object;
   125:	checkcast	#145; //class scala/xml/NamespaceBinding
   128:	invokevirtual	#160; //Method scala/collection/mutable/Stack.push:(Ljava/lang/Object;)Lscala/collection/mutable/Stack;
   131:	pop
   132:	aload_0
   133:	invokevirtual	#88; //Method attribStack:()Lscala/collection/mutable/Stack;
   136:	aload	6
   138:	getfield	#283; //Field scala/runtime/ObjectRef.elem:Ljava/lang/Object;
   141:	checkcast	#94; //class scala/xml/MetaData
   144:	invokevirtual	#160; //Method scala/collection/mutable/Stack.push:(Ljava/lang/Object;)Lscala/collection/mutable/Stack;
   147:	pop
   148:	return
  LineNumberTable: 
   line 129: 0
   line 130: 4
   line 131: 16
   line 133: 21
   line 134: 34
   line 136: 44
   line 137: 53
   line 138: 65
   line 140: 77
   line 155: 104
   line 154: 106
   line 140: 108
   line 154: 116
   line 155: 132

  LocalVariableTable: 
   Start  Length  Slot  Name   Signature
   0      149      0    this       Lscala/xml/parsing/FactoryAdapter;
   0      149      1    uri       Ljava/lang/String;
   0      149      2    _localName       Ljava/lang/String;
   0      149      3    qname       Ljava/lang/String;
   0      149      4    attributes$1       Lorg/xml/sax/Attributes;
   34      114      5    localName       Ljava/lang/String;
   65      83      6    m$1       Lscala/runtime/ObjectRef;
   77      71      7    scpe$1       Lscala/runtime/ObjectRef;


public final scala.Tuple2 scala$xml$parsing$FactoryAdapter$$splitName(java.lang.String);
  Code:
   Stack=6, Locals=3, Args_size=2
   0:	aload_1
   1:	ldc_w	#289; //int 58
   4:	invokevirtual	#293; //Method java/lang/String.indexOf:(I)I
   7:	istore_2
   8:	iload_2
   9:	iconst_0
   10:	if_icmpge	25
   13:	new	#130; //class scala/Tuple2
   16:	dup
   17:	aconst_null
   18:	aload_1
   19:	invokespecial	#141; //Method scala/Tuple2."<init>":(Ljava/lang/Object;Ljava/lang/Object;)V
   22:	goto	62
   25:	new	#130; //class scala/Tuple2
   28:	dup
   29:	new	#295; //class scala/collection/immutable/StringOps
   32:	dup
   33:	aload_1
   34:	invokespecial	#296; //Method scala/collection/immutable/StringOps."<init>":(Ljava/lang/String;)V
   37:	iload_2
   38:	invokeinterface	#302,  2; //InterfaceMethod scala/collection/IndexedSeqLike.take:(I)Ljava/lang/Object;
   43:	new	#295; //class scala/collection/immutable/StringOps
   46:	dup
   47:	aload_1
   48:	invokespecial	#296; //Method scala/collection/immutable/StringOps."<init>":(Ljava/lang/String;)V
   51:	iload_2
   52:	iconst_1
   53:	iadd
   54:	invokeinterface	#305,  2; //InterfaceMethod scala/collection/IndexedSeqLike.drop:(I)Ljava/lang/Object;
   59:	invokespecial	#141; //Method scala/Tuple2."<init>":(Ljava/lang/Object;Ljava/lang/Object;)V
   62:	areturn
  LineNumberTable: 
   line 115: 0
   line 116: 8
   line 117: 25
   line 114: 62

  LocalVariableTable: 
   Start  Length  Slot  Name   Signature
   0      63      0    this       Lscala/xml/parsing/FactoryAdapter;
   0      63      1    s       Ljava/lang/String;
   8      55      2    idx       I


public void characters(char[], int, int);
  Code:
   Stack=4, Locals=8, Args_size=4
   0:	aload_0
   1:	invokevirtual	#208; //Method capture:()Z
   4:	ifeq	139
   7:	aload_0
   8:	invokevirtual	#312; //Method normalizeWhitespace:()Z
   11:	ifeq	127
   14:	new	#314; //class scala/collection/mutable/ArrayOps$ofChar
   17:	dup
   18:	aload_1
   19:	invokespecial	#317; //Method scala/collection/mutable/ArrayOps$ofChar."<init>":([C)V
   22:	iload_2
   23:	iload_2
   24:	iload_3
   25:	iadd
   26:	invokeinterface	#321,  3; //InterfaceMethod scala/collection/IndexedSeqLike.slice:(II)Ljava/lang/Object;
   31:	checkcast	#323; //class "[C"
   34:	astore	4
   36:	new	#314; //class scala/collection/mutable/ArrayOps$ofChar
   39:	dup
   40:	aload	4
   42:	invokespecial	#317; //Method scala/collection/mutable/ArrayOps$ofChar."<init>":([C)V
   45:	invokeinterface	#327,  1; //InterfaceMethod scala/collection/IndexedSeqLike.iterator:()Lscala/collection/Iterator;
   50:	astore	7
   52:	aload	7
   54:	invokeinterface	#330,  1; //InterfaceMethod scala/collection/Iterator.hasNext:()Z
   59:	ifeq	138
   62:	aload	7
   64:	invokeinterface	#333,  1; //InterfaceMethod scala/collection/Iterator.next:()Ljava/lang/Object;
   69:	invokestatic	#339; //Method scala/runtime/BoxesRunTime.unboxToChar:(Ljava/lang/Object;)C
   72:	istore	5
   74:	iload	5
   76:	invokestatic	#345; //Method java/lang/Character.isWhitespace:(C)Z
   79:	istore	6
   81:	aload_0
   82:	invokevirtual	#211; //Method buffer:()Lscala/collection/mutable/StringBuilder;
   85:	iload	6
   87:	ifeq	96
   90:	ldc_w	#346; //int 32
   93:	goto	98
   96:	iload	5
   98:	invokevirtual	#350; //Method scala/collection/mutable/StringBuilder.append:(C)Lscala/collection/mutable/StringBuilder;
   101:	pop
   102:	iload	6
   104:	ifeq	52
   107:	aload	7
   109:	new	#352; //class scala/xml/parsing/FactoryAdapter$$anonfun$characters$1
   112:	dup
   113:	aload_0
   114:	invokespecial	#353; //Method scala/xml/parsing/FactoryAdapter$$anonfun$characters$1."<init>":(Lscala/xml/parsing/FactoryAdapter;)V
   117:	invokeinterface	#357,  2; //InterfaceMethod scala/collection/Iterator.dropWhile:(Lscala/Function1;)Lscala/collection/Iterator;
   122:	astore	7
   124:	goto	52
   127:	aload_0
   128:	invokevirtual	#211; //Method buffer:()Lscala/collection/mutable/StringBuilder;
   131:	aload_1
   132:	iload_2
   133:	iload_3
   134:	invokevirtual	#361; //Method scala/collection/mutable/StringBuilder.appendAll:([CII)Lscala/collection/mutable/StringBuilder;
   137:	pop
   138:	return
   139:	return
  LineNumberTable: 
   line 98: 0
   line 100: 7
   line 103: 14
   line 104: 52
   line 105: 62
   line 106: 76
   line 107: 81
   line 108: 102
   line 109: 107
   line 100: 127
   line 98: 138

  LocalVariableTable: 
   Start  Length  Slot  Name   Signature
   0      140      0    this       Lscala/xml/parsing/FactoryAdapter;
   0      140      1    ch       [C
   0      140      2    offset       I
   0      140      3    length       I
   74      53      5    c       C
   81      46      6    isSpace       Z
   52      75      7    it       Lscala/collection/Iterator;


public boolean normalizeWhitespace();
  Code:
   Stack=1, Locals=1, Args_size=1
   0:	aload_0
   1:	getfield	#63; //Field normalizeWhitespace:Z
   4:	ireturn
  LineNumberTable: 
   line 90: 0


public abstract scala.collection.Seq createProcInstr(java.lang.String, java.lang.String);
  Signature: length = 0x2
   01 71 

public abstract scala.xml.Text createText(java.lang.String);

public abstract scala.xml.Node createNode(java.lang.String, java.lang.String, scala.xml.MetaData, scala.xml.NamespaceBinding, scala.collection.immutable.List);
  Signature: length = 0x2
   01 72 

public abstract boolean nodeContainsText(java.lang.String);

public void capture_$eq(boolean);
  Code:
   Stack=2, Locals=2, Args_size=2
   0:	aload_0
   1:	iload_1
   2:	putfield	#61; //Field capture:Z
   5:	return
  LineNumberTable: 
   line 58: 0


public boolean capture();
  Code:
   Stack=1, Locals=1, Args_size=1
   0:	aload_0
   1:	getfield	#61; //Field capture:Z
   4:	ireturn
  LineNumberTable: 
   line 58: 0


public void curTag_$eq(java.lang.String);
  Code:
   Stack=2, Locals=2, Args_size=2
   0:	aload_0
   1:	aload_1
   2:	putfield	#59; //Field curTag:Ljava/lang/String;
   5:	return
  LineNumberTable: 
   line 57: 0


public java.lang.String curTag();
  Code:
   Stack=1, Locals=1, Args_size=1
   0:	aload_0
   1:	getfield	#59; //Field curTag:Ljava/lang/String;
   4:	areturn
  LineNumberTable: 
   line 57: 0


public void scopeStack_$eq(scala.collection.mutable.Stack);
  Code:
   Stack=2, Locals=2, Args_size=2
   0:	aload_0
   1:	aload_1
   2:	putfield	#57; //Field scopeStack:Lscala/collection/mutable/Stack;
   5:	return
  LineNumberTable: 
   line 55: 0

  Signature: length = 0x2
   01 75 

public scala.collection.mutable.Stack scopeStack();
  Code:
   Stack=1, Locals=1, Args_size=1
   0:	aload_0
   1:	getfield	#57; //Field scopeStack:Lscala/collection/mutable/Stack;
   4:	areturn
  LineNumberTable: 
   line 55: 0

  Signature: length = 0x2
   01 76 

public scala.collection.mutable.Stack tagStack();
  Code:
   Stack=1, Locals=1, Args_size=1
   0:	aload_0
   1:	getfield	#55; //Field tagStack:Lscala/collection/mutable/Stack;
   4:	areturn
  LineNumberTable: 
   line 54: 0

  Signature: length = 0x2
   01 77 

public scala.collection.mutable.Stack hStack();
  Code:
   Stack=1, Locals=1, Args_size=1
   0:	aload_0
   1:	getfield	#53; //Field hStack:Lscala/collection/mutable/Stack;
   4:	areturn
  LineNumberTable: 
   line 53: 0

  Signature: length = 0x2
   01 78 

public scala.collection.mutable.Stack attribStack();
  Code:
   Stack=1, Locals=1, Args_size=1
   0:	aload_0
   1:	getfield	#51; //Field attribStack:Lscala/collection/mutable/Stack;
   4:	areturn
  LineNumberTable: 
   line 52: 0

  Signature: length = 0x2
   01 79 

public scala.collection.mutable.StringBuilder buffer();
  Code:
   Stack=1, Locals=1, Args_size=1
   0:	aload_0
   1:	getfield	#46; //Field buffer:Lscala/collection/mutable/StringBuilder;
   4:	areturn
  LineNumberTable: 
   line 51: 0


public void rootElem_$eq(scala.xml.Node);
  Code:
   Stack=2, Locals=2, Args_size=2
   0:	aload_0
   1:	aload_1
   2:	putfield	#41; //Field rootElem:Lscala/xml/Node;
   5:	return
  LineNumberTable: 
   line 49: 0


public scala.xml.Node rootElem();
  Code:
   Stack=1, Locals=1, Args_size=1
   0:	aload_0
   1:	getfield	#41; //Field rootElem:Lscala/xml/Node;
   4:	areturn
  LineNumberTable: 
   line 49: 0


public scala.xml.Node loadString(java.lang.String);
  Code:
   Stack=2, Locals=2, Args_size=2
   0:	aload_0
   1:	aload_1
   2:	invokestatic	#382; //Method scala/xml/factory/XMLLoader$class.loadString:(Lscala/xml/factory/XMLLoader;Ljava/lang/String;)Lscala/xml/Node;
   5:	areturn
  LineNumberTable: 
   line 47: 0

  LocalVariableTable: 
   Start  Length  Slot  Name   Signature
   0      6      0    this       Lscala/xml/parsing/FactoryAdapter;
   0      6      1    string       Ljava/lang/String;


public scala.xml.Node load(org.xml.sax.InputSource);
  Code:
   Stack=2, Locals=2, Args_size=2
   0:	aload_0
   1:	aload_1
   2:	invokestatic	#388; //Method scala/xml/factory/XMLLoader$class.load:(Lscala/xml/factory/XMLLoader;Lorg/xml/sax/InputSource;)Lscala/xml/Node;
   5:	areturn
  LineNumberTable: 
   line 47: 0

  LocalVariableTable: 
   Start  Length  Slot  Name   Signature
   0      6      0    this       Lscala/xml/parsing/FactoryAdapter;
   0      6      1    source       Lorg/xml/sax/InputSource;


public scala.xml.Node load(java.lang.String);
  Code:
   Stack=2, Locals=2, Args_size=2
   0:	aload_0
   1:	aload_1
   2:	invokestatic	#392; //Method scala/xml/factory/XMLLoader$class.load:(Lscala/xml/factory/XMLLoader;Ljava/lang/String;)Lscala/xml/Node;
   5:	areturn
  LineNumberTable: 
   line 47: 0

  LocalVariableTable: 
   Start  Length  Slot  Name   Signature
   0      6      0    this       Lscala/xml/parsing/FactoryAdapter;
   0      6      1    sysID       Ljava/lang/String;


public scala.xml.Node load(java.io.Reader);
  Code:
   Stack=2, Locals=2, Args_size=2
   0:	aload_0
   1:	aload_1
   2:	invokestatic	#397; //Method scala/xml/factory/XMLLoader$class.load:(Lscala/xml/factory/XMLLoader;Ljava/io/Reader;)Lscala/xml/Node;
   5:	areturn
  LineNumberTable: 
   line 47: 0

  LocalVariableTable: 
   Start  Length  Slot  Name   Signature
   0      6      0    this       Lscala/xml/parsing/FactoryAdapter;
   0      6      1    reader       Ljava/io/Reader;


public scala.xml.Node load(java.io.InputStream);
  Code:
   Stack=2, Locals=2, Args_size=2
   0:	aload_0
   1:	aload_1
   2:	invokestatic	#403; //Method scala/xml/factory/XMLLoader$class.load:(Lscala/xml/factory/XMLLoader;Ljava/io/InputStream;)Lscala/xml/Node;
   5:	areturn
  LineNumberTable: 
   line 47: 0

  LocalVariableTable: 
   Start  Length  Slot  Name   Signature
   0      6      0    this       Lscala/xml/parsing/FactoryAdapter;
   0      6      1    is       Ljava/io/InputStream;


public scala.xml.Node loadFile(java.lang.String);
  Code:
   Stack=2, Locals=2, Args_size=2
   0:	aload_0
   1:	aload_1
   2:	invokestatic	#408; //Method scala/xml/factory/XMLLoader$class.loadFile:(Lscala/xml/factory/XMLLoader;Ljava/lang/String;)Lscala/xml/Node;
   5:	areturn
  LineNumberTable: 
   line 47: 0

  LocalVariableTable: 
   Start  Length  Slot  Name   Signature
   0      6      0    this       Lscala/xml/parsing/FactoryAdapter;
   0      6      1    name       Ljava/lang/String;


public scala.xml.Node loadFile(java.io.FileDescriptor);
  Code:
   Stack=2, Locals=2, Args_size=2
   0:	aload_0
   1:	aload_1
   2:	invokestatic	#413; //Method scala/xml/factory/XMLLoader$class.loadFile:(Lscala/xml/factory/XMLLoader;Ljava/io/FileDescriptor;)Lscala/xml/Node;
   5:	areturn
  LineNumberTable: 
   line 47: 0

  LocalVariableTable: 
   Start  Length  Slot  Name   Signature
   0      6      0    this       Lscala/xml/parsing/FactoryAdapter;
   0      6      1    fd       Ljava/io/FileDescriptor;


public scala.xml.Node loadFile(java.io.File);
  Code:
   Stack=2, Locals=2, Args_size=2
   0:	aload_0
   1:	aload_1
   2:	invokestatic	#419; //Method scala/xml/factory/XMLLoader$class.loadFile:(Lscala/xml/factory/XMLLoader;Ljava/io/File;)Lscala/xml/Node;
   5:	areturn
  LineNumberTable: 
   line 47: 0

  LocalVariableTable: 
   Start  Length  Slot  Name   Signature
   0      6      0    this       Lscala/xml/parsing/FactoryAdapter;
   0      6      1    file       Ljava/io/File;


public scala.xml.Node loadXML(org.xml.sax.InputSource, javax.xml.parsers.SAXParser);
  Code:
   Stack=3, Locals=3, Args_size=3
   0:	aload_0
   1:	aload_1
   2:	aload_2
   3:	invokestatic	#426; //Method scala/xml/factory/XMLLoader$class.loadXML:(Lscala/xml/factory/XMLLoader;Lorg/xml/sax/InputSource;Ljavax/xml/parsers/SAXParser;)Lscala/xml/Node;
   6:	areturn
  LineNumberTable: 
   line 47: 0

  LocalVariableTable: 
   Start  Length  Slot  Name   Signature
   0      7      0    this       Lscala/xml/parsing/FactoryAdapter;
   0      7      1    source       Lorg/xml/sax/InputSource;
   0      7      2    parser       Ljavax/xml/parsers/SAXParser;


public javax.xml.parsers.SAXParser parser();
  Code:
   Stack=1, Locals=1, Args_size=1
   0:	aload_0
   1:	invokestatic	#432; //Method scala/xml/factory/XMLLoader$class.parser:(Lscala/xml/factory/XMLLoader;)Ljavax/xml/parsers/SAXParser;
   4:	areturn
  LineNumberTable: 
   line 47: 0


public scala.xml.parsing.FactoryAdapter adapter();
  Code:
   Stack=1, Locals=1, Args_size=1
   0:	aload_0
   1:	invokestatic	#437; //Method scala/xml/factory/XMLLoader$class.adapter:(Lscala/xml/factory/XMLLoader;)Lscala/xml/parsing/FactoryAdapter;
   4:	areturn
  LineNumberTable: 
   line 47: 0


public void scala$xml$factory$XMLLoader$_setter_$scala$xml$factory$XMLLoader$$saxFactory_$eq(javax.xml.parsers.SAXParserFactory);
  Code:
   Stack=2, Locals=2, Args_size=2
   0:	aload_0
   1:	aload_1
   2:	putfield	#441; //Field scala$xml$factory$XMLLoader$$saxFactory:Ljavax/xml/parsers/SAXParserFactory;
   5:	return
  LineNumberTable: 
   line 47: 0


public final javax.xml.parsers.SAXParserFactory scala$xml$factory$XMLLoader$$saxFactory();
  Code:
   Stack=1, Locals=1, Args_size=1
   0:	aload_0
   1:	getfield	#441; //Field scala$xml$factory$XMLLoader$$saxFactory:Ljavax/xml/parsers/SAXParserFactory;
   4:	areturn
  LineNumberTable: 
   line 47: 0


}

