Compiled from "FactoryAdapter.scala"
public abstract class scala.xml.parsing.FactoryAdapter extends org.xml.sax.helpers.DefaultHandler implements scala.xml.factory.XMLLoader,scala.ScalaObject
  SourceFile: "FactoryAdapter.scala"
  Signature: length = 0x2
   01 FFFFFFBD 
  ScalaSig: length = 0x726
   05 00 FFFFFF81 70 06 08 01 02 FFFFFF84 FFFFFF80 FFFFFF80 FFFFFF81 00 09 02 0E
   46 61 63 74 6F 72 79 41 64 61 70 74 65 72 0A 02
   03 04 01 07 70 61 72 73 69 6E 67 0A 02 05 06 01
   03 78 6D 6C 0A 01 07 01 05 73 63 61 6C 61 03 00
   13 04 00 0A 15 1F 10 02 0B 13 0D 01 0C 0A 02 0D
   0E 01 07 68 65 6C 70 65 72 73 0A 02 0F 10 01 03
   73 61 78 0A 02 05 11 0A 01 12 01 03 6F 72 67 09
   02 14 0C 02 0E 44 65 66 61 75 6C 74 48 61 6E 64
   6C 65 72 10 03 16 19 1B 0D 01 17 0A 02 18 04 01
   07 66 61 63 74 6F 72 79 09 02 1A 17 02 09 58 4D
   4C 4C 6F 61 64 65 72 10 02 1C 1D 0D 01 04 09 02
   1E 04 02 04 4E 6F 64 65 10 02 20 21 0D 01 06 09
   02 22 06 02 0B 53 63 61 6C 61 4F 62 6A 65 63 74
   08 05 24 00 FFFFFF84 00 25 01 06 3C 69 6E 69 74 3E 14
   01 26 10 02 27 00 0D 01 02 08 07 29 00 FFFFFFC0 FFFFFF80 FFFFFF84
   00 2A 01 08 72 6F 6F 74 45 6C 65 6D 15 01 1B 08
   07 2C 00 FFFFFFC0 FFFFFF80 FFFFFF84 00 2D 01 0C 72 6F 6F 74 45 6C
   65 6D 5F 24 65 71 14 02 2E 31 10 02 20 2F 09 02
   30 06 02 04 55 6E 69 74 08 07 32 2B FFFFFF81 FFFFFF80 FFFFFFC0 00
   1B 01 03 78 24 31 08 06 34 00 FFFFFFA0 FFFFFFA0 04 1B 01 09
   72 6F 6F 74 45 6C 65 6D 20 08 07 36 00 FFFFFFC2 FFFFFF80 FFFFFF84
   00 37 01 06 62 75 66 66 65 72 15 01 38 10 02 39
   3E 0D 01 3A 0A 02 3B 3C 01 07 6D 75 74 61 62 6C
   65 0A 02 3D 06 01 0A 63 6F 6C 6C 65 63 74 69 6F
   6E 09 02 3F 3A 02 0D 53 74 72 69 6E 67 42 75 69
   6C 64 65 72 08 06 41 00 FFFFFFA0 FFFFFF80 04 38 01 07 62 75
   66 66 65 72 20 08 07 43 00 FFFFFFC2 FFFFFF80 FFFFFF84 00 44 01 0B
   61 74 74 72 69 62 53 74 61 63 6B 15 01 45 10 03
   39 46 48 09 02 47 3A 02 05 53 74 61 63 6B 10 02
   1C 49 09 02 4A 04 02 08 4D 65 74 61 44 61 74 61
   08 06 4C 00 FFFFFFA0 FFFFFF80 04 45 01 0C 61 74 74 72 69 62
   53 74 61 63 6B 20 08 07 4E 00 FFFFFFC2 FFFFFF80 FFFFFF84 00 4F 01
   06 68 53 74 61 63 6B 15 01 50 10 03 39 46 1B 08
   06 52 00 FFFFFFA0 FFFFFF80 04 50 01 07 68 53 74 61 63 6B 20
   08 07 54 00 FFFFFFC2 FFFFFF80 FFFFFF84 00 55 01 08 74 61 67 53 74
   61 63 6B 15 01 56 10 03 39 46 57 10 02 58 5B 0E
   02 20 59 09 02 5A 06 01 06 50 72 65 64 65 66 09
   02 5C 5D 02 06 53 74 72 69 6E 67 0A 02 5A 06 08
   06 5F 00 FFFFFFA0 FFFFFF80 04 56 01 09 74 61 67 53 74 61 63
   6B 20 08 07 61 00 FFFFFFC0 FFFFFF80 FFFFFF84 00 62 01 0A 73 63 6F
   70 65 53 74 61 63 6B 15 01 63 10 03 39 46 64 10
   02 1C 65 09 02 66 04 02 10 4E 61 6D 65 73 70 61
   63 65 42 69 6E 64 69 6E 67 08 07 68 00 FFFFFFC0 FFFFFF80 FFFFFF84
   00 69 01 0E 73 63 6F 70 65 53 74 61 63 6B 5F 24
   65 71 14 02 2E 6A 08 07 32 67 FFFFFF81 FFFFFF80 FFFFFFC0 00 63 08
   06 6C 00 FFFFFFA0 FFFFFFA0 04 63 01 0B 73 63 6F 70 65 53 74
   61 63 6B 20 08 07 6E 00 FFFFFFC0 FFFFFF80 FFFFFF84 00 6F 01 06 63
   75 72 54 61 67 15 01 57 08 07 71 00 FFFFFFC0 FFFFFF80 FFFFFF84 00
   72 01 0A 63 75 72 54 61 67 5F 24 65 71 14 02 2E
   73 08 07 32 70 FFFFFF81 FFFFFF80 FFFFFFC0 00 57 08 06 75 00 FFFFFFA0 FFFFFFA0
   04 57 01 07 63 75 72 54 61 67 20 08 07 77 00 FFFFFFC0
   FFFFFF80 FFFFFF84 00 78 01 07 63 61 70 74 75 72 65 15 01 79
   10 02 20 7A 09 02 7B 06 02 07 42 6F 6F 6C 65 61
   6E 08 07 7D 00 FFFFFFC0 FFFFFF80 FFFFFF84 00 7E 01 0B 63 61 70 74
   75 72 65 5F 24 65 71 14 02 2E 7F 08 07 32 7C FFFFFF81
   FFFFFF80 FFFFFFC0 00 79 08 07 FFFFFF81 01 00 FFFFFFA0 FFFFFFA0 04 79 01 08 63
   61 70 74 75 72 65 20 08 07 FFFFFF81 03 00 FFFFFF86 00 FFFFFF81 04
   01 10 6E 6F 64 65 43 6F 6E 74 61 69 6E 73 54 65
   78 74 14 03 79 FFFFFF81 05 08 07 FFFFFF81 06 FFFFFF81 02 FFFFFFC0 00 57
   01 09 6C 6F 63 61 6C 4E 61 6D 65 08 07 FFFFFF81 08 00
   FFFFFF86 00 FFFFFF81 09 01 0A 63 72 65 61 74 65 4E 6F 64 65
   14 0B 1B FFFFFF81 0A FFFFFF81 0C FFFFFF81 0E FFFFFF81 10 FFFFFF81 12 08 07 FFFFFF81
   0B FFFFFF81 07 FFFFFFC0 00 57 01 03 70 72 65 08 07 FFFFFF81 0D FFFFFF81
   07 FFFFFFC0 00 57 01 08 65 6C 65 6D 4E 61 6D 65 08 07
   FFFFFF81 0F FFFFFF81 07 FFFFFFC0 00 48 01 07 61 74 74 72 69 62 73
   08 07 FFFFFF81 11 FFFFFF81 07 FFFFFFC0 00 64 01 05 73 63 6F 70 65
   08 08 FFFFFF81 13 FFFFFF81 07 FFFFFFC0 00 FFFFFF81 14 01 06 63 68 49 74
   65 72 10 05 FFFFFF81 15 FFFFFF81 1D 1B 0E 04 FFFFFF81 16 FFFFFF81 1B 0E
   04 FFFFFF81 17 FFFFFF81 1A 0D 02 FFFFFF81 18 0A 03 FFFFFF81 19 08 01 06
   3C 72 6F 6F 74 3E 09 01 07 09 03 FFFFFF81 1C 06 01 07
   70 61 63 6B 61 67 65 09 04 FFFFFF81 1E FFFFFF81 1F 02 04 4C
   69 73 74 0A 03 FFFFFF81 1C 06 08 07 FFFFFF81 21 00 FFFFFF86 00 FFFFFF81
   22 01 0A 63 72 65 61 74 65 54 65 78 74 14 04 FFFFFF81
   23 FFFFFF81 26 10 03 1C FFFFFF81 24 09 03 FFFFFF81 25 04 02 04 54
   65 78 74 08 07 FFFFFF81 27 FFFFFF81 20 FFFFFFC0 00 57 01 04 74 65
   78 74 08 07 FFFFFF81 29 00 FFFFFF86 00 FFFFFF81 2A 01 0F 63 72 65
   61 74 65 50 72 6F 63 49 6E 73 74 72 14 06 FFFFFF81 2B
   FFFFFF81 31 FFFFFF81 33 10 06 FFFFFF81 15 FFFFFF81 2C FFFFFF81 2E 09 04 FFFFFF81 2D
   FFFFFF81 1F 02 03 53 65 71 10 03 1C FFFFFF81 2F 09 03 FFFFFF81 30
   04 02 09 50 72 6F 63 49 6E 73 74 72 08 07 FFFFFF81 32
   FFFFFF81 28 FFFFFFC0 00 57 01 06 74 61 72 67 65 74 08 07 FFFFFF81
   34 FFFFFF81 28 FFFFFFC0 00 57 01 04 64 61 74 61 08 08 FFFFFF81 36
   00 FFFFFFC2 FFFFFF80 FFFFFF84 00 78 01 13 6E 6F 72 6D 61 6C 69 7A
   65 57 68 69 74 65 73 70 61 63 65 08 07 FFFFFF81 38 00
   FFFFFFA0 FFFFFF80 04 79 01 14 6E 6F 72 6D 61 6C 69 7A 65 57
   68 69 74 65 73 70 61 63 65 20 08 07 FFFFFF81 3A 00 FFFFFF84
   20 FFFFFF81 3B 01 0A 63 68 61 72 61 63 74 65 72 73 14
   07 2E FFFFFF81 3C FFFFFF81 44 FFFFFF81 49 08 08 FFFFFF81 3D FFFFFF81 39 FFFFFFC0 00
   FFFFFF81 3E 01 02 63 68 10 05 20 FFFFFF81 3F FFFFFF81 41 09 03 FFFFFF81
   40 06 02 05 41 72 72 61 79 10 03 20 FFFFFF81 42 09 03
   FFFFFF81 43 06 02 04 43 68 61 72 08 08 FFFFFF81 45 FFFFFF81 39 FFFFFFC0
   00 FFFFFF81 46 01 06 6F 66 66 73 65 74 10 03 20 FFFFFF81 47
   09 03 FFFFFF81 48 06 02 03 49 6E 74 08 08 FFFFFF81 4A FFFFFF81 39
   FFFFFFC0 00 FFFFFF81 46 01 06 6C 65 6E 67 74 68 08 07 FFFFFF81 4C
   00 FFFFFF84 04 FFFFFF81 4D 01 09 73 70 6C 69 74 4E 61 6D 65
   14 04 FFFFFF81 4E FFFFFF81 51 10 05 20 FFFFFF81 4F 57 57 09 03 FFFFFF81
   50 06 02 06 54 75 70 6C 65 32 08 07 FFFFFF81 52 FFFFFF81 4B
   FFFFFFC0 00 57 01 01 73 08 07 FFFFFF81 54 00 FFFFFF84 20 FFFFFF81 55 01
   0C 73 74 61 72 74 45 6C 65 6D 65 6E 74 14 09 2E
   FFFFFF81 56 FFFFFF81 58 FFFFFF81 5A FFFFFF81 5C 08 07 FFFFFF81 57 FFFFFF81 53 FFFFFFC0 00
   57 01 03 75 72 69 08 07 FFFFFF81 59 FFFFFF81 53 FFFFFFC0 00 57 01
   0A 5F 6C 6F 63 61 6C 4E 61 6D 65 08 07 FFFFFF81 5B FFFFFF81
   53 FFFFFFC0 00 57 01 05 71 6E 61 6D 65 08 08 FFFFFF81 5D FFFFFF81
   53 FFFFFFC0 00 FFFFFF81 5E 01 0A 61 74 74 72 69 62 75 74 65
   73 10 04 FFFFFF81 5F FFFFFF81 60 0D 01 0E 09 03 FFFFFF81 61 0E 02
   0A 41 74 74 72 69 62 75 74 65 73 08 07 FFFFFF81 63 00
   FFFFFF84 00 FFFFFF81 64 01 0B 63 61 70 74 75 72 65 54 65 78
   74 14 01 2E 08 07 FFFFFF81 66 00 FFFFFF84 20 FFFFFF81 67 01 0A 65
   6E 64 45 6C 65 6D 65 6E 74 14 07 2E FFFFFF81 68 FFFFFF81 69
   FFFFFF81 6A 08 07 FFFFFF81 57 FFFFFF81 65 FFFFFFC0 00 57 08 07 FFFFFF81 59 FFFFFF81
   65 FFFFFFC0 00 57 08 07 FFFFFF81 5B FFFFFF81 65 FFFFFFC0 00 57 08 07 FFFFFF81
   6C 00 FFFFFF84 20 FFFFFF81 6D 01 15 70 72 6F 63 65 73 73 69
   6E 67 49 6E 73 74 72 75 63 74 69 6F 6E 14 05 2E
   FFFFFF81 6E FFFFFF81 6F 08 07 FFFFFF81 32 FFFFFF81 6B FFFFFFC0 00 57 08 07 FFFFFF81
   34 FFFFFF81 6B FFFFFFC0 00 57 
  InnerClass: 
   public abstract ByOne=class scala/collection/immutable/Range$ByOne of class scala/collection/immutable/Range
   public final $anon$2=class scala/collection/immutable/Range$$anon$2 of class scala/collection/immutable/Range
   public ofChar=class scala/collection/mutable/ArrayOps$ofChar of class scala/collection/mutable/ArrayOps
   public final $anon$13=class scala/collection/Iterator$$anon$13 of class scala/collection/Iterator
   public final $anonfun$2=class scala/xml/parsing/FactoryAdapter$$anonfun$2 of class scala/xml/parsing/FactoryAdapter
   public final $anonfun$1=class scala/xml/parsing/FactoryAdapter$$anonfun$1 of class scala/xml/parsing/FactoryAdapter
   public final $anonfun$characters$1=class scala/xml/parsing/FactoryAdapter$$anonfun$characters$1 of class scala/xml/parsing/FactoryAdapter
   public final $anonfun$startElement$1=class scala/xml/parsing/FactoryAdapter$$anonfun$startElement$1 of class scala/xml/parsing/FactoryAdapter
  minor version: 0
  major version: 49
  Constant pool:
Asciz	SourceFile;
Asciz	FactoryAdapter.scala;
Asciz	scala$xml$factory$XMLLoader$$saxFactory;
Asciz	Ljavax/xml/parsers/SAXParserFactory;;
Asciz	normalizeWhitespace;
Asciz	Z;
Asciz	capture;
Asciz	curTag;
Asciz	Ljava/lang/String;;
Asciz	scopeStack;
Asciz	Lscala/collection/mutable/Stack;;
Asciz	Lscala/collection/mutable/Stack<Lscala/xml/NamespaceBinding;>;;
Asciz	Signature;
Asciz	tagStack;
Asciz	Lscala/collection/mutable/Stack<Ljava/lang/String;>;;
Asciz	hStack;
Asciz	Lscala/collection/mutable/Stack<Lscala/xml/Node;>;;
Asciz	attribStack;
Asciz	Lscala/collection/mutable/Stack<Lscala/xml/MetaData;>;;
Asciz	buffer;
Asciz	Lscala/collection/mutable/StringBuilder;;
Asciz	rootElem;
Asciz	Lscala/xml/Node;;
Asciz	()Ljavax/xml/parsers/SAXParserFactory;;
Asciz	Code;
Asciz	LineNumberTable;
Asciz	scala/xml/parsing/FactoryAdapter;
class	scala/xml/parsing/FactoryAdapter
NameAndType	scala$xml$factory$XMLLoader$$saxFactory:Ljavax/xml/parsers/SAXParserFactory;
Field	scala/xml/parsing/FactoryAdapter.scala$xml$factory$XMLLoader$$saxFactory:Ljavax/xml/parsers/SAXParserFactory;
Asciz	scala$xml$factory$XMLLoader$_setter_$scala$xml$factory$XMLLoader$$saxFactory_$eq;
Asciz	(Ljavax/xml/parsers/SAXParserFactory;)V;
Asciz	adapter;
Asciz	()Lscala/xml/parsing/FactoryAdapter;;
Asciz	scala/xml/factory/XMLLoader$class;
class	scala/xml/factory/XMLLoader$class
Asciz	(Lscala/xml/factory/XMLLoader;)Lscala/xml/parsing/FactoryAdapter;;
NameAndType	adapter:(Lscala/xml/factory/XMLLoader;)Lscala/xml/parsing/FactoryAdapter;
Method	scala/xml/factory/XMLLoader$class.adapter:(Lscala/xml/factory/XMLLoader;)Lscala/xml/parsing/FactoryAdapter;
Asciz	parser;
Asciz	()Ljavax/xml/parsers/SAXParser;;
Asciz	(Lscala/xml/factory/XMLLoader;)Ljavax/xml/parsers/SAXParser;;
NameAndType	parser:(Lscala/xml/factory/XMLLoader;)Ljavax/xml/parsers/SAXParser;
Method	scala/xml/factory/XMLLoader$class.parser:(Lscala/xml/factory/XMLLoader;)Ljavax/xml/parsers/SAXParser;
Asciz	loadXML;
Asciz	(Lorg/xml/sax/InputSource;Ljavax/xml/parsers/SAXParser;)Lscala/xml/Node;;
Asciz	(Lscala/xml/factory/XMLLoader;Lorg/xml/sax/InputSource;Ljavax/xml/parsers/SAXParser;)Lscala/xml/Node;;
NameAndType	loadXML:(Lscala/xml/factory/XMLLoader;Lorg/xml/sax/InputSource;Ljavax/xml/parsers/SAXParser;)Lscala/xml/Node;
Method	scala/xml/factory/XMLLoader$class.loadXML:(Lscala/xml/factory/XMLLoader;Lorg/xml/sax/InputSource;Ljavax/xml/parsers/SAXParser;)Lscala/xml/Node;
Asciz	this;
Asciz	Lscala/xml/parsing/FactoryAdapter;;
Asciz	source;
Asciz	Lorg/xml/sax/InputSource;;
Asciz	Ljavax/xml/parsers/SAXParser;;
Asciz	LocalVariableTable;
Asciz	loadFile;
Asciz	(Ljava/io/File;)Lscala/xml/Node;;
Asciz	(Lscala/xml/factory/XMLLoader;Ljava/io/File;)Lscala/xml/Node;;
NameAndType	loadFile:(Lscala/xml/factory/XMLLoader;Ljava/io/File;)Lscala/xml/Node;
Method	scala/xml/factory/XMLLoader$class.loadFile:(Lscala/xml/factory/XMLLoader;Ljava/io/File;)Lscala/xml/Node;
Asciz	file;
Asciz	Ljava/io/File;;
Asciz	(Ljava/io/FileDescriptor;)Lscala/xml/Node;;
Asciz	(Lscala/xml/factory/XMLLoader;Ljava/io/FileDescriptor;)Lscala/xml/Node;;
NameAndType	loadFile:(Lscala/xml/factory/XMLLoader;Ljava/io/FileDescriptor;)Lscala/xml/Node;
Method	scala/xml/factory/XMLLoader$class.loadFile:(Lscala/xml/factory/XMLLoader;Ljava/io/FileDescriptor;)Lscala/xml/Node;
Asciz	fd;
Asciz	Ljava/io/FileDescriptor;;
Asciz	(Ljava/lang/String;)Lscala/xml/Node;;
Asciz	(Lscala/xml/factory/XMLLoader;Ljava/lang/String;)Lscala/xml/Node;;
NameAndType	loadFile:(Lscala/xml/factory/XMLLoader;Ljava/lang/String;)Lscala/xml/Node;
Method	scala/xml/factory/XMLLoader$class.loadFile:(Lscala/xml/factory/XMLLoader;Ljava/lang/String;)Lscala/xml/Node;
Asciz	name;
Asciz	load;
Asciz	(Ljava/io/InputStream;)Lscala/xml/Node;;
Asciz	(Lscala/xml/factory/XMLLoader;Ljava/io/InputStream;)Lscala/xml/Node;;
NameAndType	load:(Lscala/xml/factory/XMLLoader;Ljava/io/InputStream;)Lscala/xml/Node;
Method	scala/xml/factory/XMLLoader$class.load:(Lscala/xml/factory/XMLLoader;Ljava/io/InputStream;)Lscala/xml/Node;
Asciz	is;
Asciz	Ljava/io/InputStream;;
Asciz	(Ljava/io/Reader;)Lscala/xml/Node;;
Asciz	(Lscala/xml/factory/XMLLoader;Ljava/io/Reader;)Lscala/xml/Node;;
NameAndType	load:(Lscala/xml/factory/XMLLoader;Ljava/io/Reader;)Lscala/xml/Node;
Method	scala/xml/factory/XMLLoader$class.load:(Lscala/xml/factory/XMLLoader;Ljava/io/Reader;)Lscala/xml/Node;
Asciz	reader;
Asciz	Ljava/io/Reader;;
NameAndType	load:(Lscala/xml/factory/XMLLoader;Ljava/lang/String;)Lscala/xml/Node;
Method	scala/xml/factory/XMLLoader$class.load:(Lscala/xml/factory/XMLLoader;Ljava/lang/String;)Lscala/xml/Node;
Asciz	sysID;
Asciz	(Lorg/xml/sax/InputSource;)Lscala/xml/Node;;
Asciz	(Lscala/xml/factory/XMLLoader;Lorg/xml/sax/InputSource;)Lscala/xml/Node;;
NameAndType	load:(Lscala/xml/factory/XMLLoader;Lorg/xml/sax/InputSource;)Lscala/xml/Node;
Method	scala/xml/factory/XMLLoader$class.load:(Lscala/xml/factory/XMLLoader;Lorg/xml/sax/InputSource;)Lscala/xml/Node;
Asciz	(Ljava/net/URL;)Lscala/xml/Node;;
Asciz	(Lscala/xml/factory/XMLLoader;Ljava/net/URL;)Lscala/xml/Node;;
NameAndType	load:(Lscala/xml/factory/XMLLoader;Ljava/net/URL;)Lscala/xml/Node;
Method	scala/xml/factory/XMLLoader$class.load:(Lscala/xml/factory/XMLLoader;Ljava/net/URL;)Lscala/xml/Node;
Asciz	url;
Asciz	Ljava/net/URL;;
Asciz	loadString;
NameAndType	loadString:(Lscala/xml/factory/XMLLoader;Ljava/lang/String;)Lscala/xml/Node;
Method	scala/xml/factory/XMLLoader$class.loadString:(Lscala/xml/factory/XMLLoader;Ljava/lang/String;)Lscala/xml/Node;
Asciz	string;
Asciz	()Lscala/xml/Node;;
NameAndType	rootElem:Lscala/xml/Node;
Field	scala/xml/parsing/FactoryAdapter.rootElem:Lscala/xml/Node;
Asciz	rootElem_$eq;
Asciz	(Lscala/xml/Node;)V;
Asciz	()Lscala/collection/mutable/StringBuilder;;
NameAndType	buffer:Lscala/collection/mutable/StringBuilder;
Field	scala/xml/parsing/FactoryAdapter.buffer:Lscala/collection/mutable/StringBuilder;
Asciz	()Lscala/collection/mutable/Stack;;
NameAndType	attribStack:Lscala/collection/mutable/Stack;
Field	scala/xml/parsing/FactoryAdapter.attribStack:Lscala/collection/mutable/Stack;
Asciz	()Lscala/collection/mutable/Stack<Lscala/xml/MetaData;>;;
NameAndType	hStack:Lscala/collection/mutable/Stack;
Field	scala/xml/parsing/FactoryAdapter.hStack:Lscala/collection/mutable/Stack;
Asciz	()Lscala/collection/mutable/Stack<Lscala/xml/Node;>;;
NameAndType	tagStack:Lscala/collection/mutable/Stack;
Field	scala/xml/parsing/FactoryAdapter.tagStack:Lscala/collection/mutable/Stack;
Asciz	()Lscala/collection/mutable/Stack<Ljava/lang/String;>;;
NameAndType	scopeStack:Lscala/collection/mutable/Stack;
Field	scala/xml/parsing/FactoryAdapter.scopeStack:Lscala/collection/mutable/Stack;
Asciz	()Lscala/collection/mutable/Stack<Lscala/xml/NamespaceBinding;>;;
Asciz	scopeStack_$eq;
Asciz	(Lscala/collection/mutable/Stack;)V;
Asciz	(Lscala/collection/mutable/Stack<Lscala/xml/NamespaceBinding;>;)V;
Asciz	()Ljava/lang/String;;
NameAndType	curTag:Ljava/lang/String;
Field	scala/xml/parsing/FactoryAdapter.curTag:Ljava/lang/String;
Asciz	curTag_$eq;
Asciz	(Ljava/lang/String;)V;
Asciz	()Z;
NameAndType	capture:Z
Field	scala/xml/parsing/FactoryAdapter.capture:Z
Asciz	capture_$eq;
Asciz	(Z)V;
Asciz	nodeContainsText;
Asciz	(Ljava/lang/String;)Z;
Asciz	createNode;
Asciz	(Ljava/lang/String;Ljava/lang/String;Lscala/xml/MetaData;Lscala/xml/NamespaceBinding;Lscala/collection/immutable/List;)Lscala/xml/Node;;
Asciz	(Ljava/lang/String;Ljava/lang/String;Lscala/xml/MetaData;Lscala/xml/NamespaceBinding;Lscala/collection/immutable/List<Lscala/xml/Node;>;)Lscala/xml/Node;;
Asciz	createText;
Asciz	(Ljava/lang/String;)Lscala/xml/Text;;
Asciz	createProcInstr;
Asciz	(Ljava/lang/String;Ljava/lang/String;)Lscala/collection/Seq;;
Asciz	(Ljava/lang/String;Ljava/lang/String;)Lscala/collection/Seq<Lscala/xml/ProcInstr;>;;
NameAndType	normalizeWhitespace:Z
Field	scala/xml/parsing/FactoryAdapter.normalizeWhitespace:Z
Asciz	characters;
Asciz	([CII)V;
NameAndType	capture:()Z
Method	scala/xml/parsing/FactoryAdapter.capture:()Z
NameAndType	normalizeWhitespace:()Z
Method	scala/xml/parsing/FactoryAdapter.normalizeWhitespace:()Z
Asciz	scala/collection/mutable/ArrayOps$ofChar;
class	scala/collection/mutable/ArrayOps$ofChar
Asciz	<init>;
Asciz	([C)V;
NameAndType	"<init>":([C)V
Method	scala/collection/mutable/ArrayOps$ofChar."<init>":([C)V
Asciz	scala/collection/IndexedSeqLike;
class	scala/collection/IndexedSeqLike
Asciz	slice;
Asciz	(II)Ljava/lang/Object;;
NameAndType	slice:(II)Ljava/lang/Object;
InterfaceMethod	scala/collection/IndexedSeqLike.slice:(II)Ljava/lang/Object;
Asciz	[C;
class	"[C"
Asciz	iterator;
Asciz	()Lscala/collection/Iterator;;
NameAndType	iterator:()Lscala/collection/Iterator;
InterfaceMethod	scala/collection/IndexedSeqLike.iterator:()Lscala/collection/Iterator;
Asciz	scala/collection/Iterator;
class	scala/collection/Iterator
Asciz	hasNext;
NameAndType	hasNext:()Z
InterfaceMethod	scala/collection/Iterator.hasNext:()Z
Asciz	next;
Asciz	()Ljava/lang/Object;;
NameAndType	next:()Ljava/lang/Object;
InterfaceMethod	scala/collection/Iterator.next:()Ljava/lang/Object;
Asciz	scala/runtime/BoxesRunTime;
class	scala/runtime/BoxesRunTime
Asciz	unboxToChar;
Asciz	(Ljava/lang/Object;)C;
NameAndType	unboxToChar:(Ljava/lang/Object;)C
Method	scala/runtime/BoxesRunTime.unboxToChar:(Ljava/lang/Object;)C
Asciz	java/lang/Character;
class	java/lang/Character
Asciz	isWhitespace;
Asciz	(C)Z;
NameAndType	isWhitespace:(C)Z
Method	java/lang/Character.isWhitespace:(C)Z
NameAndType	buffer:()Lscala/collection/mutable/StringBuilder;
Method	scala/xml/parsing/FactoryAdapter.buffer:()Lscala/collection/mutable/StringBuilder;
int	32;
Asciz	scala/collection/mutable/StringBuilder;
class	scala/collection/mutable/StringBuilder
Asciz	append;
Asciz	(C)Lscala/collection/mutable/StringBuilder;;
NameAndType	append:(C)Lscala/collection/mutable/StringBuilder;
Method	scala/collection/mutable/StringBuilder.append:(C)Lscala/collection/mutable/StringBuilder;
Asciz	scala/xml/parsing/FactoryAdapter$$anonfun$characters$1;
class	scala/xml/parsing/FactoryAdapter$$anonfun$characters$1
Asciz	(Lscala/xml/parsing/FactoryAdapter;)V;
NameAndType	"<init>":(Lscala/xml/parsing/FactoryAdapter;)V
Method	scala/xml/parsing/FactoryAdapter$$anonfun$characters$1."<init>":(Lscala/xml/parsing/FactoryAdapter;)V
Asciz	dropWhile;
Asciz	(Lscala/Function1;)Lscala/collection/Iterator;;
NameAndType	dropWhile:(Lscala/Function1;)Lscala/collection/Iterator;
InterfaceMethod	scala/collection/Iterator.dropWhile:(Lscala/Function1;)Lscala/collection/Iterator;
Asciz	appendAll;
Asciz	([CII)Lscala/collection/mutable/StringBuilder;;
NameAndType	appendAll:([CII)Lscala/collection/mutable/StringBuilder;
Method	scala/collection/mutable/StringBuilder.appendAll:([CII)Lscala/collection/mutable/StringBuilder;
Asciz	ch;
Asciz	offset;
Asciz	I;
Asciz	length;
Asciz	c;
Asciz	C;
Asciz	isSpace;
Asciz	it;
Asciz	Lscala/collection/Iterator;;
Asciz	scala$xml$parsing$FactoryAdapter$$splitName;
Asciz	(Ljava/lang/String;)Lscala/Tuple2;;
int	58;
Asciz	java/lang/String;
class	java/lang/String
Asciz	indexOf;
Asciz	(I)I;
NameAndType	indexOf:(I)I
Method	java/lang/String.indexOf:(I)I
Asciz	scala/Tuple2;
class	scala/Tuple2
Asciz	(Ljava/lang/Object;Ljava/lang/Object;)V;
NameAndType	"<init>":(Ljava/lang/Object;Ljava/lang/Object;)V
Method	scala/Tuple2."<init>":(Ljava/lang/Object;Ljava/lang/Object;)V
Asciz	scala/collection/immutable/StringOps;
class	scala/collection/immutable/StringOps
NameAndType	"<init>":(Ljava/lang/String;)V
Method	scala/collection/immutable/StringOps."<init>":(Ljava/lang/String;)V
Asciz	scala/collection/IndexedSeqLike$class;
class	scala/collection/IndexedSeqLike$class
Asciz	take;
Asciz	(Lscala/collection/IndexedSeqLike;I)Ljava/lang/Object;;
NameAndType	take:(Lscala/collection/IndexedSeqLike;I)Ljava/lang/Object;
Method	scala/collection/IndexedSeqLike$class.take:(Lscala/collection/IndexedSeqLike;I)Ljava/lang/Object;
Asciz	drop;
NameAndType	drop:(Lscala/collection/IndexedSeqLike;I)Ljava/lang/Object;
Method	scala/collection/IndexedSeqLike$class.drop:(Lscala/collection/IndexedSeqLike;I)Ljava/lang/Object;
Asciz	s;
Asciz	idx;
Asciz	startElement;
Asciz	(Ljava/lang/String;Ljava/lang/String;Ljava/lang/String;Lorg/xml/sax/Attributes;)V;
Asciz	captureText;
Asciz	()V;
NameAndType	captureText:()V
Method	scala/xml/parsing/FactoryAdapter.captureText:()V
NameAndType	tagStack:()Lscala/collection/mutable/Stack;
Method	scala/xml/parsing/FactoryAdapter.tagStack:()Lscala/collection/mutable/Stack;
NameAndType	curTag:()Ljava/lang/String;
Method	scala/xml/parsing/FactoryAdapter.curTag:()Ljava/lang/String;
Asciz	scala/collection/mutable/Stack;
class	scala/collection/mutable/Stack
Asciz	push;
Asciz	(Ljava/lang/Object;)Lscala/collection/mutable/Stack;;
NameAndType	push:(Ljava/lang/Object;)Lscala/collection/mutable/Stack;
Method	scala/collection/mutable/Stack.push:(Ljava/lang/Object;)Lscala/collection/mutable/Stack;
NameAndType	curTag_$eq:(Ljava/lang/String;)V
Method	scala/xml/parsing/FactoryAdapter.curTag_$eq:(Ljava/lang/String;)V
NameAndType	scala$xml$parsing$FactoryAdapter$$splitName:(Ljava/lang/String;)Lscala/Tuple2;
Method	scala/xml/parsing/FactoryAdapter.scala$xml$parsing$FactoryAdapter$$splitName:(Ljava/lang/String;)Lscala/Tuple2;
Asciz	_2;
NameAndType	_2:()Ljava/lang/Object;
Method	scala/Tuple2._2:()Ljava/lang/Object;
NameAndType	nodeContainsText:(Ljava/lang/String;)Z
Method	scala/xml/parsing/FactoryAdapter.nodeContainsText:(Ljava/lang/String;)Z
NameAndType	capture_$eq:(Z)V
Method	scala/xml/parsing/FactoryAdapter.capture_$eq:(Z)V
NameAndType	hStack:()Lscala/collection/mutable/Stack;
Method	scala/xml/parsing/FactoryAdapter.hStack:()Lscala/collection/mutable/Stack;
Asciz	scala/runtime/ObjectRef;
class	scala/runtime/ObjectRef
Asciz	scala/xml/Null$;
class	scala/xml/Null$
Asciz	MODULE$;
Asciz	Lscala/xml/Null$;;
NameAndType	MODULE$:Lscala/xml/Null$;
Field	scala/xml/Null$.MODULE$:Lscala/xml/Null$;
Asciz	(Ljava/lang/Object;)V;
NameAndType	"<init>":(Ljava/lang/Object;)V
Method	scala/runtime/ObjectRef."<init>":(Ljava/lang/Object;)V
NameAndType	scopeStack:()Lscala/collection/mutable/Stack;
Method	scala/xml/parsing/FactoryAdapter.scopeStack:()Lscala/collection/mutable/Stack;
Asciz	isEmpty;
NameAndType	isEmpty:()Z
Method	scala/collection/mutable/Stack.isEmpty:()Z
Asciz	scala/xml/TopScope$;
class	scala/xml/TopScope$
Asciz	Lscala/xml/TopScope$;;
NameAndType	MODULE$:Lscala/xml/TopScope$;
Field	scala/xml/TopScope$.MODULE$:Lscala/xml/TopScope$;
Asciz	top;
NameAndType	top:()Ljava/lang/Object;
Method	scala/collection/mutable/Stack.top:()Ljava/lang/Object;
Asciz	scala/xml/NamespaceBinding;
class	scala/xml/NamespaceBinding
Asciz	org/xml/sax/Attributes;
class	org/xml/sax/Attributes
Asciz	getLength;
Asciz	()I;
NameAndType	getLength:()I
InterfaceMethod	org/xml/sax/Attributes.getLength:()I
Asciz	scala/collection/immutable/Range$$anon$2;
class	scala/collection/immutable/Range$$anon$2
Asciz	(II)V;
NameAndType	"<init>":(II)V
Method	scala/collection/immutable/Range$$anon$2."<init>":(II)V
Asciz	scala/xml/parsing/FactoryAdapter$$anonfun$startElement$1;
class	scala/xml/parsing/FactoryAdapter$$anonfun$startElement$1
Asciz	(Lscala/xml/parsing/FactoryAdapter;Lorg/xml/sax/Attributes;Lscala/runtime/ObjectRef;Lscala/runtime/ObjectRef;)V;
NameAndType	"<init>":(Lscala/xml/parsing/FactoryAdapter;Lorg/xml/sax/Attributes;Lscala/runtime/ObjectRef;Lscala/runtime/ObjectRef;)V
Method	scala/xml/parsing/FactoryAdapter$$anonfun$startElement$1."<init>":(Lscala/xml/parsing/FactoryAdapter;Lorg/xml/sax/Attributes;Lscala/runtime/ObjectRef;Lscala/runtime/ObjectRef;)V
Asciz	scala/collection/immutable/Range$ByOne;
class	scala/collection/immutable/Range$ByOne
Asciz	foreach;
Asciz	(Lscala/Function1;)V;
NameAndType	foreach:(Lscala/Function1;)V
InterfaceMethod	scala/collection/immutable/Range$ByOne.foreach:(Lscala/Function1;)V
Asciz	elem;
Asciz	Ljava/lang/Object;;
NameAndType	elem:Ljava/lang/Object;
Field	scala/runtime/ObjectRef.elem:Ljava/lang/Object;
NameAndType	attribStack:()Lscala/collection/mutable/Stack;
Method	scala/xml/parsing/FactoryAdapter.attribStack:()Lscala/collection/mutable/Stack;
Asciz	scala/xml/MetaData;
class	scala/xml/MetaData
Asciz	uri;
Asciz	_localName;
Asciz	qname;
Asciz	attributes$1;
Asciz	Lorg/xml/sax/Attributes;;
Asciz	localName;
Asciz	scpe$1;
Asciz	Lscala/runtime/ObjectRef;;
Asciz	m$1;
NameAndType	length:()I
Method	scala/collection/mutable/StringBuilder.length:()I
Asciz	toString;
NameAndType	toString:()Ljava/lang/String;
Method	scala/collection/mutable/StringBuilder.toString:()Ljava/lang/String;
NameAndType	createText:(Ljava/lang/String;)Lscala/xml/Text;
Method	scala/xml/parsing/FactoryAdapter.createText:(Ljava/lang/String;)Lscala/xml/Text;
Asciz	scala/runtime/BoxedUnit;
class	scala/runtime/BoxedUnit
Asciz	UNIT;
Asciz	Lscala/runtime/BoxedUnit;;
NameAndType	UNIT:Lscala/runtime/BoxedUnit;
Field	scala/runtime/BoxedUnit.UNIT:Lscala/runtime/BoxedUnit;
Asciz	setLength;
Asciz	(I)V;
NameAndType	setLength:(I)V
Method	scala/collection/mutable/StringBuilder.setLength:(I)V
Asciz	endElement;
Asciz	(Ljava/lang/String;Ljava/lang/String;Ljava/lang/String;)V;
Asciz	pop;
NameAndType	pop:()Ljava/lang/Object;
Method	scala/collection/mutable/Stack.pop:()Ljava/lang/Object;
Asciz	scala/xml/parsing/FactoryAdapter$$anonfun$1;
class	scala/xml/parsing/FactoryAdapter$$anonfun$1
Method	scala/xml/parsing/FactoryAdapter$$anonfun$1."<init>":(Lscala/xml/parsing/FactoryAdapter;)V
Asciz	scala/collection/Iterator$$anon$13;
class	scala/collection/Iterator$$anon$13
Asciz	(Lscala/Function0;)V;
NameAndType	"<init>":(Lscala/Function0;)V
Method	scala/collection/Iterator$$anon$13."<init>":(Lscala/Function0;)V
Asciz	scala/xml/parsing/FactoryAdapter$$anonfun$2;
class	scala/xml/parsing/FactoryAdapter$$anonfun$2
Method	scala/xml/parsing/FactoryAdapter$$anonfun$2."<init>":(Lscala/xml/parsing/FactoryAdapter;)V
Asciz	scala/collection/Iterator$class;
class	scala/collection/Iterator$class
Asciz	takeWhile;
Asciz	(Lscala/collection/Iterator;Lscala/Function1;)Lscala/collection/Iterator;;
NameAndType	takeWhile:(Lscala/collection/Iterator;Lscala/Function1;)Lscala/collection/Iterator;
Method	scala/collection/Iterator$class.takeWhile:(Lscala/collection/Iterator;Lscala/Function1;)Lscala/collection/Iterator;
Asciz	toList;
Asciz	()Lscala/collection/immutable/List;;
NameAndType	toList:()Lscala/collection/immutable/List;
InterfaceMethod	scala/collection/Iterator.toList:()Lscala/collection/immutable/List;
Asciz	scala/collection/immutable/List;
class	scala/collection/immutable/List
Asciz	reverse;
NameAndType	reverse:()Lscala/collection/immutable/List;
Method	scala/collection/immutable/List.reverse:()Lscala/collection/immutable/List;
Asciz	_1;
NameAndType	_1:()Ljava/lang/Object;
Method	scala/Tuple2._1:()Ljava/lang/Object;
NameAndType	createNode:(Ljava/lang/String;Ljava/lang/String;Lscala/xml/MetaData;Lscala/xml/NamespaceBinding;Lscala/collection/immutable/List;)Lscala/xml/Node;
Method	scala/xml/parsing/FactoryAdapter.createNode:(Ljava/lang/String;Ljava/lang/String;Lscala/xml/MetaData;Lscala/xml/NamespaceBinding;Lscala/collection/immutable/List;)Lscala/xml/Node;
NameAndType	rootElem_$eq:(Lscala/xml/Node;)V
Method	scala/xml/parsing/FactoryAdapter.rootElem_$eq:(Lscala/xml/Node;)V
NameAndType	rootElem:()Lscala/xml/Node;
Method	scala/xml/parsing/FactoryAdapter.rootElem:()Lscala/xml/Node;
Asciz	java/lang/Object;
class	java/lang/Object
Asciz	equals;
Asciz	(Ljava/lang/Object;)Z;
NameAndType	equals:(Ljava/lang/Object;)Z
Method	java/lang/Object.equals:(Ljava/lang/Object;)Z
Asciz	scala/MatchError;
class	scala/MatchError
Method	scala/Tuple2.toString:()Ljava/lang/String;
Method	scala/MatchError."<init>":(Ljava/lang/String;)V
Asciz	pre;
Asciz	metaData;
Asciz	Lscala/xml/MetaData;;
Asciz	scp;
Asciz	Lscala/xml/NamespaceBinding;;
Asciz	v;
Asciz	Lscala/collection/immutable/List;;
Asciz	temp4;
Asciz	Lscala/Tuple2;;
Asciz	processingInstruction;
Asciz	(Ljava/lang/String;Ljava/lang/String;)V;
NameAndType	createProcInstr:(Ljava/lang/String;Ljava/lang/String;)Lscala/collection/Seq;
Method	scala/xml/parsing/FactoryAdapter.createProcInstr:(Ljava/lang/String;Ljava/lang/String;)Lscala/collection/Seq;
Asciz	pushAll;
Asciz	(Lscala/collection/Traversable;)Lscala/collection/mutable/Stack;;
NameAndType	pushAll:(Lscala/collection/Traversable;)Lscala/collection/mutable/Stack;
Method	scala/collection/mutable/Stack.pushAll:(Lscala/collection/Traversable;)Lscala/collection/mutable/Stack;
Asciz	target;
Asciz	data;
Asciz	org/xml/sax/helpers/DefaultHandler;
class	org/xml/sax/helpers/DefaultHandler
NameAndType	"<init>":()V
Method	org/xml/sax/helpers/DefaultHandler."<init>":()V
Asciz	$init$;
Asciz	(Lscala/xml/factory/XMLLoader;)V;
NameAndType	$init$:(Lscala/xml/factory/XMLLoader;)V
Method	scala/xml/factory/XMLLoader$class.$init$:(Lscala/xml/factory/XMLLoader;)V
Method	scala/collection/mutable/StringBuilder."<init>":()V
Method	scala/collection/mutable/Stack."<init>":()V
Asciz	Lorg/xml/sax/helpers/DefaultHandler;Lscala/xml/factory/XMLLoader<Lscala/xml/Node;>;Lscala/ScalaObject;;
Asciz	ScalaSig;
Asciz	InnerClasses;
Asciz	scala/collection/immutable/Range;
class	scala/collection/immutable/Range
Asciz	ByOne;
Asciz	$anon$2;
Asciz	scala/collection/mutable/ArrayOps;
class	scala/collection/mutable/ArrayOps
Asciz	ofChar;
Asciz	$anon$13;
Asciz	$anonfun$2;
Asciz	$anonfun$1;
Asciz	$anonfun$characters$1;
Asciz	$anonfun$startElement$1;
Asciz	scala/xml/factory/XMLLoader;
class	scala/xml/factory/XMLLoader
Asciz	scala/ScalaObject;
class	scala/ScalaObject

{
private final javax.xml.parsers.SAXParserFactory scala$xml$factory$XMLLoader$$saxFactory;
  Signature: Ljavax/xml/parsers/SAXParserFactory;

private final boolean normalizeWhitespace;
  Signature: Z

private boolean capture;
  Signature: Z

private java.lang.String curTag;
  Signature: Ljava/lang/String;

private scala.collection.mutable.Stack scopeStack;
  Signature: Lscala/collection/mutable/Stack;
  Signature: length = 0x2
   00 0C 

private final scala.collection.mutable.Stack tagStack;
  Signature: Lscala/collection/mutable/Stack;
  Signature: length = 0x2
   00 0F 

private final scala.collection.mutable.Stack hStack;
  Signature: Lscala/collection/mutable/Stack;
  Signature: length = 0x2
   00 11 

private final scala.collection.mutable.Stack attribStack;
  Signature: Lscala/collection/mutable/Stack;
  Signature: length = 0x2
   00 13 

private final scala.collection.mutable.StringBuilder buffer;
  Signature: Lscala/collection/mutable/StringBuilder;

private scala.xml.Node rootElem;
  Signature: Lscala/xml/Node;

public final javax.xml.parsers.SAXParserFactory scala$xml$factory$XMLLoader$$saxFactory();
  Signature: ()Ljavax/xml/parsers/SAXParserFactory;
  Code:
   Stack=1, Locals=1, Args_size=1
	aload_0
	getfield	Field scala$xml$factory$XMLLoader$$saxFactory:Ljavax/xml/parsers/SAXParserFactory;
	areturn
  Labels:

public void scala$xml$factory$XMLLoader$_setter_$scala$xml$factory$XMLLoader$$saxFactory_$eq(javax.xml.parsers.SAXParserFactory);
  Signature: (Ljavax/xml/parsers/SAXParserFactory;)V
  Code:
   Stack=2, Locals=2, Args_size=2
	aload_0
	aload_1
	putfield	Field scala$xml$factory$XMLLoader$$saxFactory:Ljavax/xml/parsers/SAXParserFactory;
	return
  Labels:

public scala.xml.parsing.FactoryAdapter adapter();
  Signature: ()Lscala/xml/parsing/FactoryAdapter;
  Code:
   Stack=1, Locals=1, Args_size=1
	aload_0
	invokestatic	Method scala/xml/factory/XMLLoader$class.adapter:(Lscala/xml/factory/XMLLoader;)Lscala/xml/parsing/FactoryAdapter;
	areturn
  Labels:

public javax.xml.parsers.SAXParser parser();
  Signature: ()Ljavax/xml/parsers/SAXParser;
  Code:
   Stack=1, Locals=1, Args_size=1
	aload_0
	invokestatic	Method scala/xml/factory/XMLLoader$class.parser:(Lscala/xml/factory/XMLLoader;)Ljavax/xml/parsers/SAXParser;
	areturn
  Labels:

public scala.xml.Node loadXML(org.xml.sax.InputSource, javax.xml.parsers.SAXParser);
  Signature: (Lorg/xml/sax/InputSource;Ljavax/xml/parsers/SAXParser;)Lscala/xml/Node;
  Code:
   Stack=3, Locals=3, Args_size=3
	aload_0
	aload_1
	aload_2
	invokestatic	Method scala/xml/factory/XMLLoader$class.loadXML:(Lscala/xml/factory/XMLLoader;Lorg/xml/sax/InputSource;Ljavax/xml/parsers/SAXParser;)Lscala/xml/Node;
	areturn
  Labels:
  LocalVariableTable: 
   Start  Length  Slot  Name   Signature
   0      7      0    this       Lscala/xml/parsing/FactoryAdapter;
   0      7      1    source       Lorg/xml/sax/InputSource;
   0      7      2    parser       Ljavax/xml/parsers/SAXParser;


public scala.xml.Node loadFile(java.io.File);
  Signature: (Ljava/io/File;)Lscala/xml/Node;
  Code:
   Stack=2, Locals=2, Args_size=2
	aload_0
	aload_1
	invokestatic	Method scala/xml/factory/XMLLoader$class.loadFile:(Lscala/xml/factory/XMLLoader;Ljava/io/File;)Lscala/xml/Node;
	areturn
  Labels:
  LocalVariableTable: 
   Start  Length  Slot  Name   Signature
   0      6      0    this       Lscala/xml/parsing/FactoryAdapter;
   0      6      1    file       Ljava/io/File;


public scala.xml.Node loadFile(java.io.FileDescriptor);
  Signature: (Ljava/io/FileDescriptor;)Lscala/xml/Node;
  Code:
   Stack=2, Locals=2, Args_size=2
	aload_0
	aload_1
	invokestatic	Method scala/xml/factory/XMLLoader$class.loadFile:(Lscala/xml/factory/XMLLoader;Ljava/io/FileDescriptor;)Lscala/xml/Node;
	areturn
  Labels:
  LocalVariableTable: 
   Start  Length  Slot  Name   Signature
   0      6      0    this       Lscala/xml/parsing/FactoryAdapter;
   0      6      1    fd       Ljava/io/FileDescriptor;


public scala.xml.Node loadFile(java.lang.String);
  Signature: (Ljava/lang/String;)Lscala/xml/Node;
  Code:
   Stack=2, Locals=2, Args_size=2
	aload_0
	aload_1
	invokestatic	Method scala/xml/factory/XMLLoader$class.loadFile:(Lscala/xml/factory/XMLLoader;Ljava/lang/String;)Lscala/xml/Node;
	areturn
  Labels:
  LocalVariableTable: 
   Start  Length  Slot  Name   Signature
   0      6      0    this       Lscala/xml/parsing/FactoryAdapter;
   0      6      1    name       Ljava/lang/String;


public scala.xml.Node load(java.io.InputStream);
  Signature: (Ljava/io/InputStream;)Lscala/xml/Node;
  Code:
   Stack=2, Locals=2, Args_size=2
	aload_0
	aload_1
	invokestatic	Method scala/xml/factory/XMLLoader$class.load:(Lscala/xml/factory/XMLLoader;Ljava/io/InputStream;)Lscala/xml/Node;
	areturn
  Labels:
  LocalVariableTable: 
   Start  Length  Slot  Name   Signature
   0      6      0    this       Lscala/xml/parsing/FactoryAdapter;
   0      6      1    is       Ljava/io/InputStream;


public scala.xml.Node load(java.io.Reader);
  Signature: (Ljava/io/Reader;)Lscala/xml/Node;
  Code:
   Stack=2, Locals=2, Args_size=2
	aload_0
	aload_1
	invokestatic	Method scala/xml/factory/XMLLoader$class.load:(Lscala/xml/factory/XMLLoader;Ljava/io/Reader;)Lscala/xml/Node;
	areturn
  Labels:
  LocalVariableTable: 
   Start  Length  Slot  Name   Signature
   0      6      0    this       Lscala/xml/parsing/FactoryAdapter;
   0      6      1    reader       Ljava/io/Reader;


public scala.xml.Node load(java.lang.String);
  Signature: (Ljava/lang/String;)Lscala/xml/Node;
  Code:
   Stack=2, Locals=2, Args_size=2
	aload_0
	aload_1
	invokestatic	Method scala/xml/factory/XMLLoader$class.load:(Lscala/xml/factory/XMLLoader;Ljava/lang/String;)Lscala/xml/Node;
	areturn
  Labels:
  LocalVariableTable: 
   Start  Length  Slot  Name   Signature
   0      6      0    this       Lscala/xml/parsing/FactoryAdapter;
   0      6      1    sysID       Ljava/lang/String;


public scala.xml.Node load(org.xml.sax.InputSource);
  Signature: (Lorg/xml/sax/InputSource;)Lscala/xml/Node;
  Code:
   Stack=2, Locals=2, Args_size=2
	aload_0
	aload_1
	invokestatic	Method scala/xml/factory/XMLLoader$class.load:(Lscala/xml/factory/XMLLoader;Lorg/xml/sax/InputSource;)Lscala/xml/Node;
	areturn
  Labels:
  LocalVariableTable: 
   Start  Length  Slot  Name   Signature
   0      6      0    this       Lscala/xml/parsing/FactoryAdapter;
   0      6      1    source       Lorg/xml/sax/InputSource;


public scala.xml.Node load(java.net.URL);
  Signature: (Ljava/net/URL;)Lscala/xml/Node;
  Code:
   Stack=2, Locals=2, Args_size=2
	aload_0
	aload_1
	invokestatic	Method scala/xml/factory/XMLLoader$class.load:(Lscala/xml/factory/XMLLoader;Ljava/net/URL;)Lscala/xml/Node;
	areturn
  Labels:
  LocalVariableTable: 
   Start  Length  Slot  Name   Signature
   0      6      0    this       Lscala/xml/parsing/FactoryAdapter;
   0      6      1    url       Ljava/net/URL;


public scala.xml.Node loadString(java.lang.String);
  Signature: (Ljava/lang/String;)Lscala/xml/Node;
  Code:
   Stack=2, Locals=2, Args_size=2
	aload_0
	aload_1
	invokestatic	Method scala/xml/factory/XMLLoader$class.loadString:(Lscala/xml/factory/XMLLoader;Ljava/lang/String;)Lscala/xml/Node;
	areturn
  Labels:
  LocalVariableTable: 
   Start  Length  Slot  Name   Signature
   0      6      0    this       Lscala/xml/parsing/FactoryAdapter;
   0      6      1    string       Ljava/lang/String;


public scala.xml.Node rootElem();
  Signature: ()Lscala/xml/Node;
  Code:
   Stack=1, Locals=1, Args_size=1
	aload_0
	getfield	Field rootElem:Lscala/xml/Node;
	areturn
  Labels:

public void rootElem_$eq(scala.xml.Node);
  Signature: (Lscala/xml/Node;)V
  Code:
   Stack=2, Locals=2, Args_size=2
	aload_0
	aload_1
	putfield	Field rootElem:Lscala/xml/Node;
	return
  Labels:

public scala.collection.mutable.StringBuilder buffer();
  Signature: ()Lscala/collection/mutable/StringBuilder;
  Code:
   Stack=1, Locals=1, Args_size=1
	aload_0
	getfield	Field buffer:Lscala/collection/mutable/StringBuilder;
	areturn
  Labels:

public scala.collection.mutable.Stack attribStack();
  Signature: ()Lscala/collection/mutable/Stack;
  Code:
   Stack=1, Locals=1, Args_size=1
	aload_0
	getfield	Field attribStack:Lscala/collection/mutable/Stack;
	areturn
  Labels:
  Signature: length = 0x2
   00 73 

public scala.collection.mutable.Stack hStack();
  Signature: ()Lscala/collection/mutable/Stack;
  Code:
   Stack=1, Locals=1, Args_size=1
	aload_0
	getfield	Field hStack:Lscala/collection/mutable/Stack;
	areturn
  Labels:
  Signature: length = 0x2
   00 76 

public scala.collection.mutable.Stack tagStack();
  Signature: ()Lscala/collection/mutable/Stack;
  Code:
   Stack=1, Locals=1, Args_size=1
	aload_0
	getfield	Field tagStack:Lscala/collection/mutable/Stack;
	areturn
  Labels:
  Signature: length = 0x2
   00 79 

public scala.collection.mutable.Stack scopeStack();
  Signature: ()Lscala/collection/mutable/Stack;
  Code:
   Stack=1, Locals=1, Args_size=1
	aload_0
	getfield	Field scopeStack:Lscala/collection/mutable/Stack;
	areturn
  Labels:
  Signature: length = 0x2
   00 7C 

public void scopeStack_$eq(scala.collection.mutable.Stack);
  Signature: (Lscala/collection/mutable/Stack;)V
  Code:
   Stack=2, Locals=2, Args_size=2
	aload_0
	aload_1
	putfield	Field scopeStack:Lscala/collection/mutable/Stack;
	return
  Labels:
  Signature: length = 0x2
   00 7F 

public java.lang.String curTag();
  Signature: ()Ljava/lang/String;
  Code:
   Stack=1, Locals=1, Args_size=1
	aload_0
	getfield	Field curTag:Ljava/lang/String;
	areturn
  Labels:

public void curTag_$eq(java.lang.String);
  Signature: (Ljava/lang/String;)V
  Code:
   Stack=2, Locals=2, Args_size=2
	aload_0
	aload_1
	putfield	Field curTag:Ljava/lang/String;
	return
  Labels:

public boolean capture();
  Signature: ()Z
  Code:
   Stack=1, Locals=1, Args_size=1
	aload_0
	getfield	Field capture:Z
	ireturn
  Labels:

public void capture_$eq(boolean);
  Signature: (Z)V
  Code:
   Stack=2, Locals=2, Args_size=2
	aload_0
	iload_1
	putfield	Field capture:Z
	return
  Labels:

public abstract boolean nodeContainsText(java.lang.String);
  Signature: (Ljava/lang/String;)Z

public abstract scala.xml.Node createNode(java.lang.String, java.lang.String, scala.xml.MetaData, scala.xml.NamespaceBinding, scala.collection.immutable.List);
  Signature: (Ljava/lang/String;Ljava/lang/String;Lscala/xml/MetaData;Lscala/xml/NamespaceBinding;Lscala/collection/immutable/List;)Lscala/xml/Node;
  Signature: length = 0x2
   00 FFFFFF8E 

public abstract scala.xml.Text createText(java.lang.String);
  Signature: (Ljava/lang/String;)Lscala/xml/Text;

public abstract scala.collection.Seq createProcInstr(java.lang.String, java.lang.String);
  Signature: (Ljava/lang/String;Ljava/lang/String;)Lscala/collection/Seq;
  Signature: length = 0x2
   00 FFFFFF93 

public boolean normalizeWhitespace();
  Signature: ()Z
  Code:
   Stack=1, Locals=1, Args_size=1
	aload_0
	getfield	Field normalizeWhitespace:Z
	ireturn
  Labels:

public void characters(char[], int, int);
  Signature: ([CII)V
  Code:
   Stack=4, Locals=8, Args_size=4
	aload_0
	invokevirtual	Method capture:()Z
	ifeq	l1 // return
	aload_0
	invokevirtual	Method normalizeWhitespace:()Z
	ifeq	l2 // aload_0
	new	class scala/collection/mutable/ArrayOps$ofChar
	dup
	aload_1
	invokespecial	Method scala/collection/mutable/ArrayOps$ofChar."<init>":([C)V
	iload_2
	iload_2
	iload_3
	iadd
	invokeinterface	InterfaceMethod scala/collection/IndexedSeqLike.slice:(II)Ljava/lang/Object;
	checkcast	class "[C"
	astore	4
	new	class scala/collection/mutable/ArrayOps$ofChar
	dup
	aload	4
	invokespecial	Method scala/collection/mutable/ArrayOps$ofChar."<init>":([C)V
	invokeinterface	InterfaceMethod scala/collection/IndexedSeqLike.iterator:()Lscala/collection/Iterator;
	astore	7
l6	aload	7
	invokeinterface	InterfaceMethod scala/collection/Iterator.hasNext:()Z
	ifeq	l3 // return
	aload	7
	invokeinterface	InterfaceMethod scala/collection/Iterator.next:()Ljava/lang/Object;
	invokestatic	Method scala/runtime/BoxesRunTime.unboxToChar:(Ljava/lang/Object;)C
	istore	5
	iload	5
	invokestatic	Method java/lang/Character.isWhitespace:(C)Z
	istore	6
	aload_0
	invokevirtual	Method buffer:()Lscala/collection/mutable/StringBuilder;
	iload	6
	ifeq	l4 // iload
	ldc	int 32
	goto	l5 // invokevirtual
l4	iload	5
l5	invokevirtual	Method scala/collection/mutable/StringBuilder.append:(C)Lscala/collection/mutable/StringBuilder;
	pop
	iload	6
	ifeq	l6 // aload
	aload	7
	new	class scala/xml/parsing/FactoryAdapter$$anonfun$characters$1
	dup
	aload_0
	invokespecial	Method scala/xml/parsing/FactoryAdapter$$anonfun$characters$1."<init>":(Lscala/xml/parsing/FactoryAdapter;)V
	invokeinterface	InterfaceMethod scala/collection/Iterator.dropWhile:(Lscala/Function1;)Lscala/collection/Iterator;
	astore	7
	goto	l6 // aload
l2	aload_0
	invokevirtual	Method buffer:()Lscala/collection/mutable/StringBuilder;
	aload_1
	iload_2
	iload_3
	invokevirtual	Method scala/collection/mutable/StringBuilder.appendAll:([CII)Lscala/collection/mutable/StringBuilder;
	pop
l3	return
l1	return
  Labels:
   	l6 = 52 // aload
   	l4 = 95 // iload
   	l5 = 97 // invokevirtual
   	l2 = 126 // aload_0
   	l3 = 137 // return
   	l1 = 138 // return
  LocalVariableTable: 
   Start  Length  Slot  Name   Signature
   0      139      0    this       Lscala/xml/parsing/FactoryAdapter;
   0      139      1    ch       [C
   0      139      2    offset       I
   0      139      3    length       I
   74      52      5    c       C
   81      45      6    isSpace       Z
   52      74      7    it       Lscala/collection/Iterator;


public final scala.Tuple2 scala$xml$parsing$FactoryAdapter$$splitName(java.lang.String);
  Signature: (Ljava/lang/String;)Lscala/Tuple2;
  Code:
   Stack=6, Locals=6, Args_size=2
	aload_1
	ldc	int 58
	invokevirtual	Method java/lang/String.indexOf:(I)I
	istore_3
	iload_3
	iconst_0
	if_icmpge	l1 // new
	new	class scala/Tuple2
	dup
	aconst_null
	aload_1
	invokespecial	Method scala/Tuple2."<init>":(Ljava/lang/Object;Ljava/lang/Object;)V
	goto	l2 // areturn
l1	new	class scala/Tuple2
	dup
	new	class scala/collection/immutable/StringOps
	dup
	aload_1
	invokespecial	Method scala/collection/immutable/StringOps."<init>":(Ljava/lang/String;)V
	astore_2
	aload_2
	iload_3
	invokestatic	Method scala/collection/IndexedSeqLike$class.take:(Lscala/collection/IndexedSeqLike;I)Ljava/lang/Object;
	new	class scala/collection/immutable/StringOps
	dup
	aload_1
	invokespecial	Method scala/collection/immutable/StringOps."<init>":(Ljava/lang/String;)V
	iload_3
	iconst_1
	iadd
	istore	5
	astore	4
	aload	4
	iload	5
	invokestatic	Method scala/collection/IndexedSeqLike$class.drop:(Lscala/collection/IndexedSeqLike;I)Ljava/lang/Object;
	invokespecial	Method scala/Tuple2."<init>":(Ljava/lang/Object;Ljava/lang/Object;)V
l2	areturn
  Labels:
   	l1 = 24 // new
   	l2 = 67 // areturn
  LocalVariableTable: 
   Start  Length  Slot  Name   Signature
   0      68      0    this       Lscala/xml/parsing/FactoryAdapter;
   0      68      1    s       Ljava/lang/String;
   7      61      3    idx       I


public void startElement(java.lang.String, java.lang.String, java.lang.String, org.xml.sax.Attributes);
  Signature: (Ljava/lang/String;Ljava/lang/String;Ljava/lang/String;Lorg/xml/sax/Attributes;)V
  Code:
   Stack=7, Locals=10, Args_size=5
	aload_0
	invokevirtual	Method captureText:()V
	aload_0
	invokevirtual	Method tagStack:()Lscala/collection/mutable/Stack;
	aload_0
	invokevirtual	Method curTag:()Ljava/lang/String;
	invokevirtual	Method scala/collection/mutable/Stack.push:(Ljava/lang/Object;)Lscala/collection/mutable/Stack;
	pop
	aload_0
	aload_3
	invokevirtual	Method curTag_$eq:(Ljava/lang/String;)V
	aload_0
	aload_3
	invokevirtual	Method scala$xml$parsing$FactoryAdapter$$splitName:(Ljava/lang/String;)Lscala/Tuple2;
	invokevirtual	Method scala/Tuple2._2:()Ljava/lang/Object;
	checkcast	class java/lang/String
	astore	5
	aload_0
	aload_0
	aload	5
	invokevirtual	Method nodeContainsText:(Ljava/lang/String;)Z
	invokevirtual	Method capture_$eq:(Z)V
	aload_0
	invokevirtual	Method hStack:()Lscala/collection/mutable/Stack;
	aconst_null
	invokevirtual	Method scala/collection/mutable/Stack.push:(Ljava/lang/Object;)Lscala/collection/mutable/Stack;
	pop
	new	class scala/runtime/ObjectRef
	dup
	getstatic	Field scala/xml/Null$.MODULE$:Lscala/xml/Null$;
	invokespecial	Method scala/runtime/ObjectRef."<init>":(Ljava/lang/Object;)V
	astore	9
	new	class scala/runtime/ObjectRef
	dup
	aload_0
	invokevirtual	Method scopeStack:()Lscala/collection/mutable/Stack;
	invokevirtual	Method scala/collection/mutable/Stack.isEmpty:()Z
	ifeq	l1 // aload_0
	getstatic	Field scala/xml/TopScope$.MODULE$:Lscala/xml/TopScope$;
	goto	l2 // invokespecial
l1	aload_0
	invokevirtual	Method scopeStack:()Lscala/collection/mutable/Stack;
	invokevirtual	Method scala/collection/mutable/Stack.top:()Ljava/lang/Object;
	checkcast	class scala/xml/NamespaceBinding
l2	invokespecial	Method scala/runtime/ObjectRef."<init>":(Ljava/lang/Object;)V
	astore	8
	aload	4
	invokeinterface	InterfaceMethod org/xml/sax/Attributes.getLength:()I
	istore	7
	iconst_0
	istore	6
	new	class scala/collection/immutable/Range$$anon$2
	dup
	iload	6
	iload	7
	invokespecial	Method scala/collection/immutable/Range$$anon$2."<init>":(II)V
	new	class scala/xml/parsing/FactoryAdapter$$anonfun$startElement$1
	dup
	aload_0
	aload	4
	aload	9
	aload	8
	invokespecial	Method scala/xml/parsing/FactoryAdapter$$anonfun$startElement$1."<init>":(Lscala/xml/parsing/FactoryAdapter;Lorg/xml/sax/Attributes;Lscala/runtime/ObjectRef;Lscala/runtime/ObjectRef;)V
	invokeinterface	InterfaceMethod scala/collection/immutable/Range$ByOne.foreach:(Lscala/Function1;)V
	aload_0
	invokevirtual	Method scopeStack:()Lscala/collection/mutable/Stack;
	aload	8
	getfield	Field scala/runtime/ObjectRef.elem:Ljava/lang/Object;
	checkcast	class scala/xml/NamespaceBinding
	invokevirtual	Method scala/collection/mutable/Stack.push:(Ljava/lang/Object;)Lscala/collection/mutable/Stack;
	pop
	aload_0
	invokevirtual	Method attribStack:()Lscala/collection/mutable/Stack;
	aload	9
	getfield	Field scala/runtime/ObjectRef.elem:Ljava/lang/Object;
	checkcast	class scala/xml/MetaData
	invokevirtual	Method scala/collection/mutable/Stack.push:(Ljava/lang/Object;)Lscala/collection/mutable/Stack;
	pop
	return
  Labels:
   	l1 = 85 // aload_0
   	l2 = 95 // invokespecial
  LocalVariableTable: 
   Start  Length  Slot  Name   Signature
   0      175      0    this       Lscala/xml/parsing/FactoryAdapter;
   0      175      1    uri       Ljava/lang/String;
   0      175      2    _localName       Ljava/lang/String;
   0      175      3    qname       Ljava/lang/String;
   0      175      4    attributes$1       Lorg/xml/sax/Attributes;
   34      140      5    localName       Ljava/lang/String;
   100      74      8    scpe$1       Lscala/runtime/ObjectRef;
   65      109      9    m$1       Lscala/runtime/ObjectRef;


public void captureText();
  Signature: ()V
  Code:
   Stack=3, Locals=2, Args_size=1
	aload_0
	invokevirtual	Method capture:()Z
	ifeq	l1 // getstatic
	aload_0
	invokevirtual	Method buffer:()Lscala/collection/mutable/StringBuilder;
	invokevirtual	Method scala/collection/mutable/StringBuilder.length:()I
	iconst_0
	if_icmple	l1 // getstatic
	aload_0
	invokevirtual	Method hStack:()Lscala/collection/mutable/Stack;
	aload_0
	aload_0
	invokevirtual	Method buffer:()Lscala/collection/mutable/StringBuilder;
	invokevirtual	Method scala/collection/mutable/StringBuilder.toString:()Ljava/lang/String;
	invokevirtual	Method createText:(Ljava/lang/String;)Lscala/xml/Text;
	invokevirtual	Method scala/collection/mutable/Stack.push:(Ljava/lang/Object;)Lscala/collection/mutable/Stack;
	goto	l2 // pop
l1	getstatic	Field scala/runtime/BoxedUnit.UNIT:Lscala/runtime/BoxedUnit;
l2	pop
	aload_0
	invokevirtual	Method buffer:()Lscala/collection/mutable/StringBuilder;
	astore_1
	aload_1
	iconst_0
	invokevirtual	Method scala/collection/mutable/StringBuilder.setLength:(I)V
	return
  Labels:
   	l1 = 39 // getstatic
   	l2 = 42 // pop
  LocalVariableTable: 
   Start  Length  Slot  Name   Signature
   0      54      0    this       Lscala/xml/parsing/FactoryAdapter;


public void endElement(java.lang.String, java.lang.String, java.lang.String);
  Signature: (Ljava/lang/String;Ljava/lang/String;Ljava/lang/String;)V
  Code:
   Stack=7, Locals=15, Args_size=4
	aload_0
	invokevirtual	Method captureText:()V
	aload_0
	invokevirtual	Method attribStack:()Lscala/collection/mutable/Stack;
	invokevirtual	Method scala/collection/mutable/Stack.pop:()Ljava/lang/Object;
	checkcast	class scala/xml/MetaData
	astore	10
	new	class scala/xml/parsing/FactoryAdapter$$anonfun$1
	dup
	aload_0
	invokespecial	Method scala/xml/parsing/FactoryAdapter$$anonfun$1."<init>":(Lscala/xml/parsing/FactoryAdapter;)V
	astore	4
	new	class scala/collection/Iterator$$anon$13
	dup
	aload	4
	invokespecial	Method scala/collection/Iterator$$anon$13."<init>":(Lscala/Function0;)V
	new	class scala/xml/parsing/FactoryAdapter$$anonfun$2
	dup
	aload_0
	invokespecial	Method scala/xml/parsing/FactoryAdapter$$anonfun$2."<init>":(Lscala/xml/parsing/FactoryAdapter;)V
	astore	6
	astore	5
	aload	5
	aload	6
	invokestatic	Method scala/collection/Iterator$class.takeWhile:(Lscala/collection/Iterator;Lscala/Function1;)Lscala/collection/Iterator;
	invokeinterface	InterfaceMethod scala/collection/Iterator.toList:()Lscala/collection/immutable/List;
	invokevirtual	Method scala/collection/immutable/List.reverse:()Lscala/collection/immutable/List;
	astore	12
	aload_0
	aload_3
	invokevirtual	Method scala$xml$parsing$FactoryAdapter$$splitName:(Ljava/lang/String;)Lscala/Tuple2;
	astore	14
	aload	14
	ifnull	l1 // new
	new	class scala/Tuple2
	dup
	aload	14
	invokevirtual	Method scala/Tuple2._1:()Ljava/lang/Object;
	aload	14
	invokevirtual	Method scala/Tuple2._2:()Ljava/lang/Object;
	invokespecial	Method scala/Tuple2."<init>":(Ljava/lang/Object;Ljava/lang/Object;)V
	astore	7
	aload	7
	invokevirtual	Method scala/Tuple2._1:()Ljava/lang/Object;
	checkcast	class java/lang/String
	astore	8
	aload	7
	invokevirtual	Method scala/Tuple2._2:()Ljava/lang/Object;
	checkcast	class java/lang/String
	astore	9
	aload_0
	invokevirtual	Method scopeStack:()Lscala/collection/mutable/Stack;
	invokevirtual	Method scala/collection/mutable/Stack.pop:()Ljava/lang/Object;
	checkcast	class scala/xml/NamespaceBinding
	astore	11
	aload_0
	aload_0
	aload	8
	aload	9
	aload	10
	aload	11
	aload	12
	invokevirtual	Method createNode:(Ljava/lang/String;Ljava/lang/String;Lscala/xml/MetaData;Lscala/xml/NamespaceBinding;Lscala/collection/immutable/List;)Lscala/xml/Node;
	invokevirtual	Method rootElem_$eq:(Lscala/xml/Node;)V
	aload_0
	invokevirtual	Method hStack:()Lscala/collection/mutable/Stack;
	aload_0
	invokevirtual	Method rootElem:()Lscala/xml/Node;
	invokevirtual	Method scala/collection/mutable/Stack.push:(Ljava/lang/Object;)Lscala/collection/mutable/Stack;
	pop
	aload_0
	aload_0
	invokevirtual	Method tagStack:()Lscala/collection/mutable/Stack;
	invokevirtual	Method scala/collection/mutable/Stack.pop:()Ljava/lang/Object;
	checkcast	class java/lang/String
	invokevirtual	Method curTag_$eq:(Ljava/lang/String;)V
	aload_0
	aload_0
	invokevirtual	Method curTag:()Ljava/lang/String;
	dup
	astore	13
	ifnull	l2 // iconst_0
	aload	13
	aconst_null
	invokevirtual	Method java/lang/Object.equals:(Ljava/lang/Object;)Z
	ifne	l2 // iconst_0
	aload_0
	aload_0
	invokevirtual	Method curTag:()Ljava/lang/String;
	invokevirtual	Method nodeContainsText:(Ljava/lang/String;)Z
	ifeq	l2 // iconst_0
	iconst_1
	goto	l3 // invokevirtual
l2	iconst_0
l3	invokevirtual	Method capture_$eq:(Z)V
	return
l1	new	class scala/MatchError
	dup
	aload	14
	invokevirtual	Method scala/Tuple2.toString:()Ljava/lang/String;
	invokespecial	Method scala/MatchError."<init>":(Ljava/lang/String;)V
	athrow
  Labels:
   	l2 = 206 // iconst_0
   	l3 = 207 // invokevirtual
   	l1 = 211 // new
  LocalVariableTable: 
   Start  Length  Slot  Name   Signature
   0      224      0    this       Lscala/xml/parsing/FactoryAdapter;
   0      224      1    uri       Ljava/lang/String;
   0      224      2    _localName       Ljava/lang/String;
   0      224      3    qname       Ljava/lang/String;
   105      105      8    pre       Ljava/lang/String;
   115      95      9    localName       Ljava/lang/String;
   16      194      10    metaData       Lscala/xml/MetaData;
   211      13      10    metaData       Lscala/xml/MetaData;
   127      83      11    scp       Lscala/xml/NamespaceBinding;
   64      146      12    v       Lscala/collection/immutable/List;
   211      13      12    v       Lscala/collection/immutable/List;
   71      111      14    temp4       Lscala/Tuple2;
   211      13      14    temp4       Lscala/Tuple2;


public void processingInstruction(java.lang.String, java.lang.String);
  Signature: (Ljava/lang/String;Ljava/lang/String;)V
  Code:
   Stack=4, Locals=3, Args_size=3
	aload_0
	invokevirtual	Method hStack:()Lscala/collection/mutable/Stack;
	aload_0
	aload_1
	aload_2
	invokevirtual	Method createProcInstr:(Ljava/lang/String;Ljava/lang/String;)Lscala/collection/Seq;
	invokevirtual	Method scala/collection/mutable/Stack.pushAll:(Lscala/collection/Traversable;)Lscala/collection/mutable/Stack;
	pop
	return
  Labels:
  LocalVariableTable: 
   Start  Length  Slot  Name   Signature
   0      15      0    this       Lscala/xml/parsing/FactoryAdapter;
   0      15      1    target       Ljava/lang/String;
   0      15      2    data       Ljava/lang/String;


public scala.xml.parsing.FactoryAdapter();
  Signature: ()V
  Code:
   Stack=3, Locals=1, Args_size=1
	aload_0
	invokespecial	Method org/xml/sax/helpers/DefaultHandler."<init>":()V
	aload_0
	invokestatic	Method scala/xml/factory/XMLLoader$class.$init$:(Lscala/xml/factory/XMLLoader;)V
	aload_0
	aconst_null
	putfield	Field rootElem:Lscala/xml/Node;
	aload_0
	new	class scala/collection/mutable/StringBuilder
	dup
	invokespecial	Method scala/collection/mutable/StringBuilder."<init>":()V
	putfield	Field buffer:Lscala/collection/mutable/StringBuilder;
	aload_0
	new	class scala/collection/mutable/Stack
	dup
	invokespecial	Method scala/collection/mutable/Stack."<init>":()V
	putfield	Field attribStack:Lscala/collection/mutable/Stack;
	aload_0
	new	class scala/collection/mutable/Stack
	dup
	invokespecial	Method scala/collection/mutable/Stack."<init>":()V
	putfield	Field hStack:Lscala/collection/mutable/Stack;
	aload_0
	new	class scala/collection/mutable/Stack
	dup
	invokespecial	Method scala/collection/mutable/Stack."<init>":()V
	putfield	Field tagStack:Lscala/collection/mutable/Stack;
	aload_0
	new	class scala/collection/mutable/Stack
	dup
	invokespecial	Method scala/collection/mutable/Stack."<init>":()V
	putfield	Field scopeStack:Lscala/collection/mutable/Stack;
	aload_0
	aconst_null
	putfield	Field curTag:Ljava/lang/String;
	aload_0
	iconst_0
	putfield	Field capture:Z
	aload_0
	iconst_0
	putfield	Field normalizeWhitespace:Z
	return
  Labels:

}

