Compiled from "FactoryAdapter.scala"
public abstract class scala.xml.parsing.FactoryAdapter extends org.xml.sax.helpers.DefaultHandler implements scala.xml.factory.XMLLoader,scala.ScalaObject
  SourceFile: "FactoryAdapter.scala"
  Signature: length = 0x2
   01 5F 
  ScalaSig: length = 0x6EC
   05 00 FFFFFF81 68 06 08 01 02 FFFFFF84 FFFFFF80 FFFFFF80 FFFFFF81 00 09 02 0E
   46 61 63 74 6F 72 79 41 64 61 70 74 65 72 0A 02
   03 04 01 07 70 61 72 73 69 6E 67 0A 02 05 06 01
   03 78 6D 6C 0A 01 07 01 05 73 63 61 6C 61 03 00
   13 04 00 0A 15 1F 10 02 0B 13 0D 01 0C 0A 02 0D
   0E 01 07 68 65 6C 70 65 72 73 0A 02 0F 10 01 03
   73 61 78 0A 02 05 11 0A 01 12 01 03 6F 72 67 09
   02 14 0C 02 0E 44 65 66 61 75 6C 74 48 61 6E 64
   6C 65 72 10 03 16 19 1B 0D 01 17 0A 02 18 04 01
   07 66 61 63 74 6F 72 79 09 02 1A 17 02 09 58 4D
   4C 4C 6F 61 64 65 72 10 02 1C 1D 0D 01 04 09 02
   1E 04 02 04 4E 6F 64 65 10 02 20 21 0D 01 06 09
   02 22 06 02 0B 53 63 61 6C 61 4F 62 6A 65 63 74
   08 05 24 00 FFFFFF84 00 25 01 06 3C 69 6E 69 74 3E 14
   01 26 10 02 27 00 0D 01 02 08 07 29 00 FFFFFFC0 FFFFFF80 FFFFFF84
   00 2A 01 08 72 6F 6F 74 45 6C 65 6D 15 01 1B 08
   07 2C 00 FFFFFFC0 FFFFFF80 FFFFFF84 00 2D 01 0C 72 6F 6F 74 45 6C
   65 6D 5F 24 65 71 14 02 2E 31 10 02 20 2F 09 02
   30 06 02 04 55 6E 69 74 08 07 32 2B FFFFFF81 FFFFFF80 FFFFFFC0 00
   1B 01 03 78 24 31 08 06 34 00 FFFFFFA0 FFFFFFA0 04 1B 01 09
   72 6F 6F 74 45 6C 65 6D 20 08 07 36 00 FFFFFFC2 FFFFFF80 FFFFFF84
   00 37 01 06 62 75 66 66 65 72 15 01 38 10 02 39
   3E 0D 01 3A 0A 02 3B 3C 01 07 6D 75 74 61 62 6C
   65 0A 02 3D 06 01 0A 63 6F 6C 6C 65 63 74 69 6F
   6E 09 02 3F 3A 02 0D 53 74 72 69 6E 67 42 75 69
   6C 64 65 72 08 06 41 00 FFFFFFA0 FFFFFF80 04 38 01 07 62 75
   66 66 65 72 20 08 07 43 00 FFFFFFC2 FFFFFF80 FFFFFF84 00 44 01 0B
   61 74 74 72 69 62 53 74 61 63 6B 15 01 45 10 03
   39 46 48 09 02 47 3A 02 05 53 74 61 63 6B 10 02
   1C 49 09 02 4A 04 02 08 4D 65 74 61 44 61 74 61
   08 06 4C 00 FFFFFFA0 FFFFFF80 04 45 01 0C 61 74 74 72 69 62
   53 74 61 63 6B 20 08 07 4E 00 FFFFFFC2 FFFFFF80 FFFFFF84 00 4F 01
   06 68 53 74 61 63 6B 15 01 50 10 03 39 46 1B 08
   06 52 00 FFFFFFA0 FFFFFF80 04 50 01 07 68 53 74 61 63 6B 20
   08 07 54 00 FFFFFFC2 FFFFFF80 FFFFFF84 00 55 01 08 74 61 67 53 74
   61 63 6B 15 01 56 10 03 39 46 57 10 02 58 5B 0E
   02 20 59 09 02 5A 06 01 06 50 72 65 64 65 66 09
   02 5C 5D 02 06 53 74 72 69 6E 67 0A 02 5A 06 08
   06 5F 00 FFFFFFA0 FFFFFF80 04 56 01 09 74 61 67 53 74 61 63
   6B 20 08 07 61 00 FFFFFFC0 FFFFFF80 FFFFFF84 00 62 01 0A 73 63 6F
   70 65 53 74 61 63 6B 15 01 63 10 03 39 46 64 10
   02 1C 65 09 02 66 04 02 10 4E 61 6D 65 73 70 61
   63 65 42 69 6E 64 69 6E 67 08 07 68 00 FFFFFFC0 FFFFFF80 FFFFFF84
   00 69 01 0E 73 63 6F 70 65 53 74 61 63 6B 5F 24
   65 71 14 02 2E 6A 08 07 32 67 FFFFFF81 FFFFFF80 FFFFFFC0 00 63 08
   06 6C 00 FFFFFFA0 FFFFFFA0 04 63 01 0B 73 63 6F 70 65 53 74
   61 63 6B 20 08 07 6E 00 FFFFFFC0 FFFFFF80 FFFFFF84 00 6F 01 06 63
   75 72 54 61 67 15 01 57 08 07 71 00 FFFFFFC0 FFFFFF80 FFFFFF84 00
   72 01 0A 63 75 72 54 61 67 5F 24 65 71 14 02 2E
   73 08 07 32 70 FFFFFF81 FFFFFF80 FFFFFFC0 00 57 08 06 75 00 FFFFFFA0 FFFFFFA0
   04 57 01 07 63 75 72 54 61 67 20 08 07 77 00 FFFFFFC0
   FFFFFF80 FFFFFF84 00 78 01 07 63 61 70 74 75 72 65 15 01 79
   10 02 20 7A 09 02 7B 06 02 07 42 6F 6F 6C 65 61
   6E 08 07 7D 00 FFFFFFC0 FFFFFF80 FFFFFF84 00 7E 01 0B 63 61 70 74
   75 72 65 5F 24 65 71 14 02 2E 7F 08 07 32 7C FFFFFF81
   FFFFFF80 FFFFFFC0 00 79 08 07 FFFFFF81 01 00 FFFFFFA0 FFFFFFA0 04 79 01 08 63
   61 70 74 75 72 65 20 08 07 FFFFFF81 03 00 FFFFFF86 00 FFFFFF81 04
   01 10 6E 6F 64 65 43 6F 6E 74 61 69 6E 73 54 65
   78 74 14 03 79 FFFFFF81 05 08 07 FFFFFF81 06 FFFFFF81 02 FFFFFFC0 00 57
   01 09 6C 6F 63 61 6C 4E 61 6D 65 08 07 FFFFFF81 08 00
   FFFFFF86 00 FFFFFF81 09 01 0A 63 72 65 61 74 65 4E 6F 64 65
   14 0B 1B FFFFFF81 0A FFFFFF81 0C FFFFFF81 0E FFFFFF81 10 FFFFFF81 12 08 07 FFFFFF81
   0B FFFFFF81 07 FFFFFFC0 00 57 01 03 70 72 65 08 07 FFFFFF81 0D FFFFFF81
   07 FFFFFFC0 00 57 01 08 65 6C 65 6D 4E 61 6D 65 08 07
   FFFFFF81 0F FFFFFF81 07 FFFFFFC0 00 48 01 07 61 74 74 72 69 62 73
   08 07 FFFFFF81 11 FFFFFF81 07 FFFFFFC0 00 64 01 05 73 63 6F 70 65
   08 08 FFFFFF81 13 FFFFFF81 07 FFFFFFC0 00 FFFFFF81 14 01 06 63 68 49 74
   65 72 10 05 FFFFFF81 15 FFFFFF81 1D 1B 0E 04 FFFFFF81 16 FFFFFF81 1B 0E
   04 FFFFFF81 17 FFFFFF81 1A 0D 02 FFFFFF81 18 0A 03 FFFFFF81 19 08 01 06
   3C 72 6F 6F 74 3E 09 01 07 09 03 FFFFFF81 1C 06 01 07
   70 61 63 6B 61 67 65 09 04 FFFFFF81 1E FFFFFF81 1F 02 04 4C
   69 73 74 0A 03 FFFFFF81 1C 06 08 07 FFFFFF81 21 00 FFFFFF86 00 FFFFFF81
   22 01 0A 63 72 65 61 74 65 54 65 78 74 14 04 FFFFFF81
   23 FFFFFF81 26 10 03 1C FFFFFF81 24 09 03 FFFFFF81 25 04 02 04 54
   65 78 74 08 07 FFFFFF81 27 FFFFFF81 20 FFFFFFC0 00 57 01 04 74 65
   78 74 08 07 FFFFFF81 29 00 FFFFFF86 00 FFFFFF81 2A 01 0F 63 72 65
   61 74 65 50 72 6F 63 49 6E 73 74 72 14 06 FFFFFF81 2B
   FFFFFF81 31 FFFFFF81 33 10 06 FFFFFF81 15 FFFFFF81 2C FFFFFF81 2E 09 04 FFFFFF81 2D
   FFFFFF81 1F 02 03 53 65 71 10 03 1C FFFFFF81 2F 09 03 FFFFFF81 30
   04 02 09 50 72 6F 63 49 6E 73 74 72 08 07 FFFFFF81 32
   FFFFFF81 28 FFFFFFC0 00 57 01 06 74 61 72 67 65 74 08 07 FFFFFF81
   34 FFFFFF81 28 FFFFFFC0 00 57 01 04 64 61 74 61 08 08 FFFFFF81 36
   00 FFFFFFC2 FFFFFF80 FFFFFF84 00 78 01 13 6E 6F 72 6D 61 6C 69 7A
   65 57 68 69 74 65 73 70 61 63 65 08 07 FFFFFF81 38 00
   FFFFFFA0 FFFFFF80 04 79 01 14 6E 6F 72 6D 61 6C 69 7A 65 57
   68 69 74 65 73 70 61 63 65 20 08 07 FFFFFF81 3A 00 FFFFFF84
   20 FFFFFF81 3B 01 0A 63 68 61 72 61 63 74 65 72 73 14
   07 2E FFFFFF81 3C FFFFFF81 44 FFFFFF81 49 08 08 FFFFFF81 3D FFFFFF81 39 FFFFFFC0 00
   FFFFFF81 3E 01 02 63 68 10 05 20 FFFFFF81 3F FFFFFF81 41 09 03 FFFFFF81
   40 06 02 05 41 72 72 61 79 10 03 20 FFFFFF81 42 09 03
   FFFFFF81 43 06 02 04 43 68 61 72 08 08 FFFFFF81 45 FFFFFF81 39 FFFFFFC0
   00 FFFFFF81 46 01 06 6F 66 66 73 65 74 10 03 20 FFFFFF81 47
   09 03 FFFFFF81 48 06 02 03 49 6E 74 08 08 FFFFFF81 4A FFFFFF81 39
   FFFFFFC0 00 FFFFFF81 46 01 06 6C 65 6E 67 74 68 08 07 FFFFFF81 4C
   00 FFFFFF84 20 FFFFFF81 4D 01 0C 73 74 61 72 74 45 6C 65 6D
   65 6E 74 14 09 2E FFFFFF81 4E FFFFFF81 50 FFFFFF81 52 FFFFFF81 54 08 07
   FFFFFF81 4F FFFFFF81 4B FFFFFFC0 00 57 01 03 75 72 69 08 07 FFFFFF81 51
   FFFFFF81 4B FFFFFFC0 00 57 01 0A 5F 6C 6F 63 61 6C 4E 61 6D
   65 08 07 FFFFFF81 53 FFFFFF81 4B FFFFFFC0 00 57 01 05 71 6E 61 6D
   65 08 08 FFFFFF81 55 FFFFFF81 4B FFFFFFC0 00 FFFFFF81 56 01 0A 61 74 74
   72 69 62 75 74 65 73 10 04 FFFFFF81 57 FFFFFF81 58 0D 01 0E
   09 03 FFFFFF81 59 0E 02 0A 41 74 74 72 69 62 75 74 65
   73 08 07 FFFFFF81 5B 00 FFFFFF84 00 FFFFFF81 5C 01 0B 63 61 70 74
   75 72 65 54 65 78 74 14 01 2E 08 07 FFFFFF81 5E 00 FFFFFF84
   20 FFFFFF81 5F 01 0A 65 6E 64 45 6C 65 6D 65 6E 74 14
   07 2E FFFFFF81 60 FFFFFF81 61 FFFFFF81 62 08 07 FFFFFF81 4F FFFFFF81 5D FFFFFFC0 00
   57 08 07 FFFFFF81 51 FFFFFF81 5D FFFFFFC0 00 57 08 07 FFFFFF81 53 FFFFFF81 5D
   FFFFFFC0 00 57 08 07 FFFFFF81 64 00 FFFFFF84 20 FFFFFF81 65 01 15 70 72
   6F 63 65 73 73 69 6E 67 49 6E 73 74 72 75 63 74
   69 6F 6E 14 05 2E FFFFFF81 66 FFFFFF81 67 08 07 FFFFFF81 32 FFFFFF81 63
   FFFFFFC0 00 57 08 07 FFFFFF81 34 FFFFFF81 63 FFFFFFC0 00 57 
  InnerClass: 
   public final #354= #235 of #37; //$anonfun$startElement$1=class scala/xml/parsing/FactoryAdapter$$anonfun$startElement$1 of class scala/xml/parsing/FactoryAdapter
   public final #355= #69 of #37; //$anonfun$processingInstruction$1=class scala/xml/parsing/FactoryAdapter$$anonfun$processingInstruction$1 of class scala/xml/parsing/FactoryAdapter
  minor version: 0
  major version: 49
  Constant pool:
const #1 = Asciz	SourceFile;
const #2 = Asciz	FactoryAdapter.scala;
const #3 = Asciz	normalizeWhitespace;
const #4 = Asciz	Z;
const #5 = Asciz	capture;
const #6 = Asciz	curTag;
const #7 = Asciz	Ljava/lang/String;;
const #8 = Asciz	scopeStack;
const #9 = Asciz	Lscala/collection/mutable/Stack;;
const #10 = Asciz	Lscala/collection/mutable/Stack<Lscala/xml/NamespaceBinding;>;;
const #11 = Asciz	Signature;
const #12 = Asciz	tagStack;
const #13 = Asciz	Lscala/collection/mutable/Stack<Ljava/lang/String;>;;
const #14 = Asciz	hStack;
const #15 = Asciz	Lscala/collection/mutable/Stack<Lscala/xml/Node;>;;
const #16 = Asciz	attribStack;
const #17 = Asciz	Lscala/collection/mutable/Stack<Lscala/xml/MetaData;>;;
const #18 = Asciz	buffer;
const #19 = Asciz	Lscala/collection/mutable/StringBuilder;;
const #20 = Asciz	rootElem;
const #21 = Asciz	Lscala/xml/Node;;
const #22 = Asciz	<init>;
const #23 = Asciz	()V;
const #24 = Asciz	Code;
const #25 = Asciz	LineNumberTable;
const #26 = Asciz	org/xml/sax/helpers/DefaultHandler;
const #27 = class	#26;	//  org/xml/sax/helpers/DefaultHandler
const #28 = NameAndType	#22:#23;//  "<init>":()V
const #29 = Method	#27.#28;	//  org/xml/sax/helpers/DefaultHandler."<init>":()V
const #30 = Asciz	scala/xml/factory/XMLLoader$class;
const #31 = class	#30;	//  scala/xml/factory/XMLLoader$class
const #32 = Asciz	$init$;
const #33 = Asciz	(Lscala/xml/factory/XMLLoader;)V;
const #34 = NameAndType	#32:#33;//  $init$:(Lscala/xml/factory/XMLLoader;)V
const #35 = Method	#31.#34;	//  scala/xml/factory/XMLLoader$class.$init$:(Lscala/xml/factory/XMLLoader;)V
const #36 = Asciz	scala/xml/parsing/FactoryAdapter;
const #37 = class	#36;	//  scala/xml/parsing/FactoryAdapter
const #38 = NameAndType	#20:#21;//  rootElem:Lscala/xml/Node;
const #39 = Field	#37.#38;	//  scala/xml/parsing/FactoryAdapter.rootElem:Lscala/xml/Node;
const #40 = Asciz	scala/collection/mutable/StringBuilder;
const #41 = class	#40;	//  scala/collection/mutable/StringBuilder
const #42 = Method	#41.#28;	//  scala/collection/mutable/StringBuilder."<init>":()V
const #43 = NameAndType	#18:#19;//  buffer:Lscala/collection/mutable/StringBuilder;
const #44 = Field	#37.#43;	//  scala/xml/parsing/FactoryAdapter.buffer:Lscala/collection/mutable/StringBuilder;
const #45 = Asciz	scala/collection/mutable/Stack;
const #46 = class	#45;	//  scala/collection/mutable/Stack
const #47 = Method	#46.#28;	//  scala/collection/mutable/Stack."<init>":()V
const #48 = NameAndType	#16:#9;//  attribStack:Lscala/collection/mutable/Stack;
const #49 = Field	#37.#48;	//  scala/xml/parsing/FactoryAdapter.attribStack:Lscala/collection/mutable/Stack;
const #50 = NameAndType	#14:#9;//  hStack:Lscala/collection/mutable/Stack;
const #51 = Field	#37.#50;	//  scala/xml/parsing/FactoryAdapter.hStack:Lscala/collection/mutable/Stack;
const #52 = NameAndType	#12:#9;//  tagStack:Lscala/collection/mutable/Stack;
const #53 = Field	#37.#52;	//  scala/xml/parsing/FactoryAdapter.tagStack:Lscala/collection/mutable/Stack;
const #54 = NameAndType	#8:#9;//  scopeStack:Lscala/collection/mutable/Stack;
const #55 = Field	#37.#54;	//  scala/xml/parsing/FactoryAdapter.scopeStack:Lscala/collection/mutable/Stack;
const #56 = NameAndType	#6:#7;//  curTag:Ljava/lang/String;
const #57 = Field	#37.#56;	//  scala/xml/parsing/FactoryAdapter.curTag:Ljava/lang/String;
const #58 = NameAndType	#5:#4;//  capture:Z
const #59 = Field	#37.#58;	//  scala/xml/parsing/FactoryAdapter.capture:Z
const #60 = NameAndType	#3:#4;//  normalizeWhitespace:Z
const #61 = Field	#37.#60;	//  scala/xml/parsing/FactoryAdapter.normalizeWhitespace:Z
const #62 = Asciz	processingInstruction;
const #63 = Asciz	(Ljava/lang/String;Ljava/lang/String;)V;
const #64 = Asciz	createProcInstr;
const #65 = Asciz	(Ljava/lang/String;Ljava/lang/String;)Lscala/collection/Sequence;;
const #66 = NameAndType	#64:#65;//  createProcInstr:(Ljava/lang/String;Ljava/lang/String;)Lscala/collection/Sequence;
const #67 = Method	#37.#66;	//  scala/xml/parsing/FactoryAdapter.createProcInstr:(Ljava/lang/String;Ljava/lang/String;)Lscala/collection/Sequence;
const #68 = Asciz	scala/xml/parsing/FactoryAdapter$$anonfun$processingInstruction$1;
const #69 = class	#68;	//  scala/xml/parsing/FactoryAdapter$$anonfun$processingInstruction$1
const #70 = Asciz	(Lscala/xml/parsing/FactoryAdapter;)V;
const #71 = NameAndType	#22:#70;//  "<init>":(Lscala/xml/parsing/FactoryAdapter;)V
const #72 = Method	#69.#71;	//  scala/xml/parsing/FactoryAdapter$$anonfun$processingInstruction$1."<init>":(Lscala/xml/parsing/FactoryAdapter;)V
const #73 = Asciz	scala/collection/generic/IterableTemplate;
const #74 = class	#73;	//  scala/collection/generic/IterableTemplate
const #75 = Asciz	foreach;
const #76 = Asciz	(Lscala/Function1;)V;
const #77 = NameAndType	#75:#76;//  foreach:(Lscala/Function1;)V
const #78 = InterfaceMethod	#74.#77;	//  scala/collection/generic/IterableTemplate.foreach:(Lscala/Function1;)V
const #79 = Asciz	this;
const #80 = Asciz	Lscala/xml/parsing/FactoryAdapter;;
const #81 = Asciz	target;
const #82 = Asciz	data;
const #83 = Asciz	LocalVariableTable;
const #84 = Asciz	endElement;
const #85 = Asciz	(Ljava/lang/String;Ljava/lang/String;Ljava/lang/String;)V;
const #86 = Asciz	captureText;
const #87 = NameAndType	#86:#23;//  captureText:()V
const #88 = Method	#37.#87;	//  scala/xml/parsing/FactoryAdapter.captureText:()V
const #89 = Asciz	()Lscala/collection/mutable/Stack;;
const #90 = NameAndType	#16:#89;//  attribStack:()Lscala/collection/mutable/Stack;
const #91 = Method	#37.#90;	//  scala/xml/parsing/FactoryAdapter.attribStack:()Lscala/collection/mutable/Stack;
const #92 = Asciz	pop;
const #93 = Asciz	()Ljava/lang/Object;;
const #94 = NameAndType	#92:#93;//  pop:()Ljava/lang/Object;
const #95 = Method	#46.#94;	//  scala/collection/mutable/Stack.pop:()Ljava/lang/Object;
const #96 = Asciz	scala/xml/MetaData;
const #97 = class	#96;	//  scala/xml/MetaData
const #98 = Asciz	scala/collection/immutable/Nil$;
const #99 = class	#98;	//  scala/collection/immutable/Nil$
const #100 = Asciz	MODULE$;
const #101 = Asciz	Lscala/collection/immutable/Nil$;;
const #102 = NameAndType	#100:#101;//  MODULE$:Lscala/collection/immutable/Nil$;
const #103 = Field	#99.#102;	//  scala/collection/immutable/Nil$.MODULE$:Lscala/collection/immutable/Nil$;
const #104 = NameAndType	#14:#89;//  hStack:()Lscala/collection/mutable/Stack;
const #105 = Method	#37.#104;	//  scala/xml/parsing/FactoryAdapter.hStack:()Lscala/collection/mutable/Stack;
const #106 = Asciz	scala/xml/Node;
const #107 = class	#106;	//  scala/xml/Node
const #108 = Asciz	scala/collection/immutable/List;
const #109 = class	#108;	//  scala/collection/immutable/List
const #110 = Asciz	$colon$colon;
const #111 = Asciz	(Ljava/lang/Object;)Lscala/collection/immutable/List;;
const #112 = NameAndType	#110:#111;//  $colon$colon:(Ljava/lang/Object;)Lscala/collection/immutable/List;
const #113 = Method	#109.#112;	//  scala/collection/immutable/List.$colon$colon:(Ljava/lang/Object;)Lscala/collection/immutable/List;
const #114 = int	58;
const #115 = Asciz	java/lang/String;
const #116 = class	#115;	//  java/lang/String
const #117 = Asciz	indexOf;
const #118 = Asciz	(I)I;
const #119 = NameAndType	#117:#118;//  indexOf:(I)I
const #120 = Method	#116.#119;	//  java/lang/String.indexOf:(I)I
const #121 = Asciz	length;
const #122 = Asciz	()I;
const #123 = NameAndType	#121:#122;//  length:()I
const #124 = Method	#116.#123;	//  java/lang/String.length:()I
const #125 = Asciz	substring;
const #126 = Asciz	(II)Ljava/lang/String;;
const #127 = NameAndType	#125:#126;//  substring:(II)Ljava/lang/String;
const #128 = Method	#116.#127;	//  java/lang/String.substring:(II)Ljava/lang/String;
const #129 = NameAndType	#8:#89;//  scopeStack:()Lscala/collection/mutable/Stack;
const #130 = Method	#37.#129;	//  scala/xml/parsing/FactoryAdapter.scopeStack:()Lscala/collection/mutable/Stack;
const #131 = Asciz	scala/xml/NamespaceBinding;
const #132 = class	#131;	//  scala/xml/NamespaceBinding
const #133 = Asciz	createNode;
const #134 = Asciz	(Ljava/lang/String;Ljava/lang/String;Lscala/xml/MetaData;Lscala/xml/NamespaceBinding;Lscala/collection/immutable/List;)Lscala/xml/Node;;
const #135 = NameAndType	#133:#134;//  createNode:(Ljava/lang/String;Ljava/lang/String;Lscala/xml/MetaData;Lscala/xml/NamespaceBinding;Lscala/collection/immutable/List;)Lscala/xml/Node;
const #136 = Method	#37.#135;	//  scala/xml/parsing/FactoryAdapter.createNode:(Ljava/lang/String;Ljava/lang/String;Lscala/xml/MetaData;Lscala/xml/NamespaceBinding;Lscala/collection/immutable/List;)Lscala/xml/Node;
const #137 = Asciz	rootElem_$eq;
const #138 = Asciz	(Lscala/xml/Node;)V;
const #139 = NameAndType	#137:#138;//  rootElem_$eq:(Lscala/xml/Node;)V
const #140 = Method	#37.#139;	//  scala/xml/parsing/FactoryAdapter.rootElem_$eq:(Lscala/xml/Node;)V
const #141 = Asciz	()Lscala/xml/Node;;
const #142 = NameAndType	#20:#141;//  rootElem:()Lscala/xml/Node;
const #143 = Method	#37.#142;	//  scala/xml/parsing/FactoryAdapter.rootElem:()Lscala/xml/Node;
const #144 = Asciz	push;
const #145 = Asciz	(Ljava/lang/Object;)Lscala/collection/mutable/Stack;;
const #146 = NameAndType	#144:#145;//  push:(Ljava/lang/Object;)Lscala/collection/mutable/Stack;
const #147 = Method	#46.#146;	//  scala/collection/mutable/Stack.push:(Ljava/lang/Object;)Lscala/collection/mutable/Stack;
const #148 = NameAndType	#12:#89;//  tagStack:()Lscala/collection/mutable/Stack;
const #149 = Method	#37.#148;	//  scala/xml/parsing/FactoryAdapter.tagStack:()Lscala/collection/mutable/Stack;
const #150 = Asciz	curTag_$eq;
const #151 = Asciz	(Ljava/lang/String;)V;
const #152 = NameAndType	#150:#151;//  curTag_$eq:(Ljava/lang/String;)V
const #153 = Method	#37.#152;	//  scala/xml/parsing/FactoryAdapter.curTag_$eq:(Ljava/lang/String;)V
const #154 = Asciz	()Ljava/lang/String;;
const #155 = NameAndType	#6:#154;//  curTag:()Ljava/lang/String;
const #156 = Method	#37.#155;	//  scala/xml/parsing/FactoryAdapter.curTag:()Ljava/lang/String;
const #157 = Asciz	nodeContainsText;
const #158 = Asciz	(Ljava/lang/String;)Z;
const #159 = NameAndType	#157:#158;//  nodeContainsText:(Ljava/lang/String;)Z
const #160 = Method	#37.#159;	//  scala/xml/parsing/FactoryAdapter.nodeContainsText:(Ljava/lang/String;)Z
const #161 = Asciz	capture_$eq;
const #162 = Asciz	(Z)V;
const #163 = NameAndType	#161:#162;//  capture_$eq:(Z)V
const #164 = Method	#37.#163;	//  scala/xml/parsing/FactoryAdapter.capture_$eq:(Z)V
const #165 = Asciz	uri;
const #166 = Asciz	_localName;
const #167 = Asciz	qname;
const #168 = Asciz	metaData;
const #169 = Asciz	Lscala/xml/MetaData;;
const #170 = Asciz	v;
const #171 = Asciz	Lscala/collection/immutable/List;;
const #172 = Asciz	child;
const #173 = Asciz	colon;
const #174 = Asciz	I;
const #175 = Asciz	localName;
const #176 = Asciz	scp;
const #177 = Asciz	Lscala/xml/NamespaceBinding;;
const #178 = Asciz	pre;
const #179 = Asciz	()Z;
const #180 = NameAndType	#5:#179;//  capture:()Z
const #181 = Method	#37.#180;	//  scala/xml/parsing/FactoryAdapter.capture:()Z
const #182 = Asciz	()Lscala/collection/mutable/StringBuilder;;
const #183 = NameAndType	#18:#182;//  buffer:()Lscala/collection/mutable/StringBuilder;
const #184 = Method	#37.#183;	//  scala/xml/parsing/FactoryAdapter.buffer:()Lscala/collection/mutable/StringBuilder;
const #185 = Asciz	toString;
const #186 = NameAndType	#185:#154;//  toString:()Ljava/lang/String;
const #187 = Method	#41.#186;	//  scala/collection/mutable/StringBuilder.toString:()Ljava/lang/String;
const #188 = Asciz	createText;
const #189 = Asciz	(Ljava/lang/String;)Lscala/xml/Text;;
const #190 = NameAndType	#188:#189;//  createText:(Ljava/lang/String;)Lscala/xml/Text;
const #191 = Method	#37.#190;	//  scala/xml/parsing/FactoryAdapter.createText:(Ljava/lang/String;)Lscala/xml/Text;
const #192 = Asciz	scala/runtime/BoxedUnit;
const #193 = class	#192;	//  scala/runtime/BoxedUnit
const #194 = Asciz	UNIT;
const #195 = Asciz	Lscala/runtime/BoxedUnit;;
const #196 = NameAndType	#194:#195;//  UNIT:Lscala/runtime/BoxedUnit;
const #197 = Field	#193.#196;	//  scala/runtime/BoxedUnit.UNIT:Lscala/runtime/BoxedUnit;
const #198 = Asciz	setLength;
const #199 = Asciz	(I)V;
const #200 = NameAndType	#198:#199;//  setLength:(I)V
const #201 = Method	#41.#200;	//  scala/collection/mutable/StringBuilder.setLength:(I)V
const #202 = Asciz	text;
const #203 = Asciz	startElement;
const #204 = Asciz	(Ljava/lang/String;Ljava/lang/String;Ljava/lang/String;Lorg/xml/sax/Attributes;)V;
const #205 = Asciz	scala/runtime/ObjectRef;
const #206 = class	#205;	//  scala/runtime/ObjectRef
const #207 = Asciz	scala/xml/Null$;
const #208 = class	#207;	//  scala/xml/Null$
const #209 = Asciz	Lscala/xml/Null$;;
const #210 = NameAndType	#100:#209;//  MODULE$:Lscala/xml/Null$;
const #211 = Field	#208.#210;	//  scala/xml/Null$.MODULE$:Lscala/xml/Null$;
const #212 = Asciz	(Ljava/lang/Object;)V;
const #213 = NameAndType	#22:#212;//  "<init>":(Ljava/lang/Object;)V
const #214 = Method	#206.#213;	//  scala/runtime/ObjectRef."<init>":(Ljava/lang/Object;)V
const #215 = Asciz	top;
const #216 = NameAndType	#215:#93;//  top:()Ljava/lang/Object;
const #217 = Method	#46.#216;	//  scala/collection/mutable/Stack.top:()Ljava/lang/Object;
const #218 = Asciz	scala/collection/immutable/List$;
const #219 = class	#218;	//  scala/collection/immutable/List$
const #220 = Asciz	Lscala/collection/immutable/List$;;
const #221 = NameAndType	#100:#220;//  MODULE$:Lscala/collection/immutable/List$;
const #222 = Field	#219.#221;	//  scala/collection/immutable/List$.MODULE$:Lscala/collection/immutable/List$;
const #223 = Asciz	org/xml/sax/Attributes;
const #224 = class	#223;	//  org/xml/sax/Attributes
const #225 = Asciz	getLength;
const #226 = NameAndType	#225:#122;//  getLength:()I
const #227 = InterfaceMethod	#224.#226;	//  org/xml/sax/Attributes.getLength:()I
const #228 = Asciz	range;
const #229 = Asciz	(II)Lscala/collection/Traversable;;
const #230 = NameAndType	#228:#229;//  range:(II)Lscala/collection/Traversable;
const #231 = Method	#219.#230;	//  scala/collection/immutable/List$.range:(II)Lscala/collection/Traversable;
const #232 = Asciz	scala/collection/generic/LinearSequenceTemplate;
const #233 = class	#232;	//  scala/collection/generic/LinearSequenceTemplate
const #234 = Asciz	scala/xml/parsing/FactoryAdapter$$anonfun$startElement$1;
const #235 = class	#234;	//  scala/xml/parsing/FactoryAdapter$$anonfun$startElement$1
const #236 = Asciz	(Lscala/xml/parsing/FactoryAdapter;Lorg/xml/sax/Attributes;Lscala/runtime/ObjectRef;Lscala/runtime/ObjectRef;)V;
const #237 = NameAndType	#22:#236;//  "<init>":(Lscala/xml/parsing/FactoryAdapter;Lorg/xml/sax/Attributes;Lscala/runtime/ObjectRef;Lscala/runtime/ObjectRef;)V
const #238 = Method	#235.#237;	//  scala/xml/parsing/FactoryAdapter$$anonfun$startElement$1."<init>":(Lscala/xml/parsing/FactoryAdapter;Lorg/xml/sax/Attributes;Lscala/runtime/ObjectRef;Lscala/runtime/ObjectRef;)V
const #239 = InterfaceMethod	#233.#77;	//  scala/collection/generic/LinearSequenceTemplate.foreach:(Lscala/Function1;)V
const #240 = Asciz	elem;
const #241 = Asciz	Ljava/lang/Object;;
const #242 = NameAndType	#240:#241;//  elem:Ljava/lang/Object;
const #243 = Field	#206.#242;	//  scala/runtime/ObjectRef.elem:Ljava/lang/Object;
const #244 = Asciz	attributes$1;
const #245 = Asciz	Lorg/xml/sax/Attributes;;
const #246 = Asciz	m$1;
const #247 = Asciz	Lscala/runtime/ObjectRef;;
const #248 = Asciz	scpe$1;
const #249 = Asciz	characters;
const #250 = Asciz	([CII)V;
const #251 = NameAndType	#3:#179;//  normalizeWhitespace:()Z
const #252 = Method	#37.#251;	//  scala/xml/parsing/FactoryAdapter.normalizeWhitespace:()Z
const #253 = Asciz	scala/Predef$;
const #254 = class	#253;	//  scala/Predef$
const #255 = Asciz	Lscala/Predef$;;
const #256 = NameAndType	#100:#255;//  MODULE$:Lscala/Predef$;
const #257 = Field	#254.#256;	//  scala/Predef$.MODULE$:Lscala/Predef$;
const #258 = Asciz	charWrapper;
const #259 = Asciz	(C)Lscala/runtime/RichChar;;
const #260 = NameAndType	#258:#259;//  charWrapper:(C)Lscala/runtime/RichChar;
const #261 = Method	#254.#260;	//  scala/Predef$.charWrapper:(C)Lscala/runtime/RichChar;
const #262 = Asciz	scala/runtime/RichChar;
const #263 = class	#262;	//  scala/runtime/RichChar
const #264 = Asciz	isWhitespace;
const #265 = NameAndType	#264:#179;//  isWhitespace:()Z
const #266 = Method	#263.#265;	//  scala/runtime/RichChar.isWhitespace:()Z
const #267 = int	32;
const #268 = Asciz	append;
const #269 = Asciz	(C)Lscala/collection/mutable/StringBuilder;;
const #270 = NameAndType	#268:#269;//  append:(C)Lscala/collection/mutable/StringBuilder;
const #271 = Method	#41.#270;	//  scala/collection/mutable/StringBuilder.append:(C)Lscala/collection/mutable/StringBuilder;
const #272 = Asciz	appendAll;
const #273 = Asciz	([CII)Lscala/collection/mutable/StringBuilder;;
const #274 = NameAndType	#272:#273;//  appendAll:([CII)Lscala/collection/mutable/StringBuilder;
const #275 = Method	#41.#274;	//  scala/collection/mutable/StringBuilder.appendAll:([CII)Lscala/collection/mutable/StringBuilder;
const #276 = Asciz	ch;
const #277 = Asciz	[C;
const #278 = Asciz	offset;
const #279 = Asciz	i;
const #280 = Asciz	c;
const #281 = Asciz	C;
const #282 = Asciz	(Ljava/lang/String;Ljava/lang/String;)Lscala/collection/Sequence<Lscala/xml/ProcInstr;>;;
const #283 = Asciz	(Ljava/lang/String;Ljava/lang/String;Lscala/xml/MetaData;Lscala/xml/NamespaceBinding;Lscala/collection/immutable/List<Lscala/xml/Node;>;)Lscala/xml/Node;;
const #284 = Asciz	scopeStack_$eq;
const #285 = Asciz	(Lscala/collection/mutable/Stack;)V;
const #286 = Asciz	(Lscala/collection/mutable/Stack<Lscala/xml/NamespaceBinding;>;)V;
const #287 = Asciz	()Lscala/collection/mutable/Stack<Lscala/xml/NamespaceBinding;>;;
const #288 = Asciz	()Lscala/collection/mutable/Stack<Ljava/lang/String;>;;
const #289 = Asciz	()Lscala/collection/mutable/Stack<Lscala/xml/Node;>;;
const #290 = Asciz	()Lscala/collection/mutable/Stack<Lscala/xml/MetaData;>;;
const #291 = Asciz	loadString;
const #292 = Asciz	(Ljava/lang/String;)Lscala/xml/Node;;
const #293 = Asciz	(Lscala/xml/factory/XMLLoader;Ljava/lang/String;)Lscala/xml/Node;;
const #294 = NameAndType	#291:#293;//  loadString:(Lscala/xml/factory/XMLLoader;Ljava/lang/String;)Lscala/xml/Node;
const #295 = Method	#31.#294;	//  scala/xml/factory/XMLLoader$class.loadString:(Lscala/xml/factory/XMLLoader;Ljava/lang/String;)Lscala/xml/Node;
const #296 = Asciz	string;
const #297 = Asciz	load;
const #298 = Asciz	(Lorg/xml/sax/InputSource;)Lscala/xml/Node;;
const #299 = Asciz	(Lscala/xml/factory/XMLLoader;Lorg/xml/sax/InputSource;)Lscala/xml/Node;;
const #300 = NameAndType	#297:#299;//  load:(Lscala/xml/factory/XMLLoader;Lorg/xml/sax/InputSource;)Lscala/xml/Node;
const #301 = Method	#31.#300;	//  scala/xml/factory/XMLLoader$class.load:(Lscala/xml/factory/XMLLoader;Lorg/xml/sax/InputSource;)Lscala/xml/Node;
const #302 = Asciz	source;
const #303 = Asciz	Lorg/xml/sax/InputSource;;
const #304 = NameAndType	#297:#293;//  load:(Lscala/xml/factory/XMLLoader;Ljava/lang/String;)Lscala/xml/Node;
const #305 = Method	#31.#304;	//  scala/xml/factory/XMLLoader$class.load:(Lscala/xml/factory/XMLLoader;Ljava/lang/String;)Lscala/xml/Node;
const #306 = Asciz	sysID;
const #307 = Asciz	(Ljava/io/Reader;)Lscala/xml/Node;;
const #308 = Asciz	(Lscala/xml/factory/XMLLoader;Ljava/io/Reader;)Lscala/xml/Node;;
const #309 = NameAndType	#297:#308;//  load:(Lscala/xml/factory/XMLLoader;Ljava/io/Reader;)Lscala/xml/Node;
const #310 = Method	#31.#309;	//  scala/xml/factory/XMLLoader$class.load:(Lscala/xml/factory/XMLLoader;Ljava/io/Reader;)Lscala/xml/Node;
const #311 = Asciz	reader;
const #312 = Asciz	Ljava/io/Reader;;
const #313 = Asciz	(Ljava/io/InputStream;)Lscala/xml/Node;;
const #314 = Asciz	(Lscala/xml/factory/XMLLoader;Ljava/io/InputStream;)Lscala/xml/Node;;
const #315 = NameAndType	#297:#314;//  load:(Lscala/xml/factory/XMLLoader;Ljava/io/InputStream;)Lscala/xml/Node;
const #316 = Method	#31.#315;	//  scala/xml/factory/XMLLoader$class.load:(Lscala/xml/factory/XMLLoader;Ljava/io/InputStream;)Lscala/xml/Node;
const #317 = Asciz	is;
const #318 = Asciz	Ljava/io/InputStream;;
const #319 = Asciz	loadFile;
const #320 = NameAndType	#319:#293;//  loadFile:(Lscala/xml/factory/XMLLoader;Ljava/lang/String;)Lscala/xml/Node;
const #321 = Method	#31.#320;	//  scala/xml/factory/XMLLoader$class.loadFile:(Lscala/xml/factory/XMLLoader;Ljava/lang/String;)Lscala/xml/Node;
const #322 = Asciz	name;
const #323 = Asciz	(Ljava/io/FileDescriptor;)Lscala/xml/Node;;
const #324 = Asciz	(Lscala/xml/factory/XMLLoader;Ljava/io/FileDescriptor;)Lscala/xml/Node;;
const #325 = NameAndType	#319:#324;//  loadFile:(Lscala/xml/factory/XMLLoader;Ljava/io/FileDescriptor;)Lscala/xml/Node;
const #326 = Method	#31.#325;	//  scala/xml/factory/XMLLoader$class.loadFile:(Lscala/xml/factory/XMLLoader;Ljava/io/FileDescriptor;)Lscala/xml/Node;
const #327 = Asciz	fd;
const #328 = Asciz	Ljava/io/FileDescriptor;;
const #329 = Asciz	(Ljava/io/File;)Lscala/xml/Node;;
const #330 = Asciz	(Lscala/xml/factory/XMLLoader;Ljava/io/File;)Lscala/xml/Node;;
const #331 = NameAndType	#319:#330;//  loadFile:(Lscala/xml/factory/XMLLoader;Ljava/io/File;)Lscala/xml/Node;
const #332 = Method	#31.#331;	//  scala/xml/factory/XMLLoader$class.loadFile:(Lscala/xml/factory/XMLLoader;Ljava/io/File;)Lscala/xml/Node;
const #333 = Asciz	file;
const #334 = Asciz	Ljava/io/File;;
const #335 = Asciz	loadXML;
const #336 = Asciz	(Lorg/xml/sax/InputSource;Ljavax/xml/parsers/SAXParser;)Lscala/xml/Node;;
const #337 = Asciz	(Lscala/xml/factory/XMLLoader;Lorg/xml/sax/InputSource;Ljavax/xml/parsers/SAXParser;)Lscala/xml/Node;;
const #338 = NameAndType	#335:#337;//  loadXML:(Lscala/xml/factory/XMLLoader;Lorg/xml/sax/InputSource;Ljavax/xml/parsers/SAXParser;)Lscala/xml/Node;
const #339 = Method	#31.#338;	//  scala/xml/factory/XMLLoader$class.loadXML:(Lscala/xml/factory/XMLLoader;Lorg/xml/sax/InputSource;Ljavax/xml/parsers/SAXParser;)Lscala/xml/Node;
const #340 = Asciz	parser;
const #341 = Asciz	Ljavax/xml/parsers/SAXParser;;
const #342 = Asciz	()Ljavax/xml/parsers/SAXParser;;
const #343 = Asciz	(Lscala/xml/factory/XMLLoader;)Ljavax/xml/parsers/SAXParser;;
const #344 = NameAndType	#340:#343;//  parser:(Lscala/xml/factory/XMLLoader;)Ljavax/xml/parsers/SAXParser;
const #345 = Method	#31.#344;	//  scala/xml/factory/XMLLoader$class.parser:(Lscala/xml/factory/XMLLoader;)Ljavax/xml/parsers/SAXParser;
const #346 = Asciz	adapter;
const #347 = Asciz	()Lscala/xml/parsing/FactoryAdapter;;
const #348 = Asciz	(Lscala/xml/factory/XMLLoader;)Lscala/xml/parsing/FactoryAdapter;;
const #349 = NameAndType	#346:#348;//  adapter:(Lscala/xml/factory/XMLLoader;)Lscala/xml/parsing/FactoryAdapter;
const #350 = Method	#31.#349;	//  scala/xml/factory/XMLLoader$class.adapter:(Lscala/xml/factory/XMLLoader;)Lscala/xml/parsing/FactoryAdapter;
const #351 = Asciz	Lorg/xml/sax/helpers/DefaultHandler;Lscala/xml/factory/XMLLoader<Lscala/xml/Node;>;Lscala/ScalaObject;;
const #352 = Asciz	ScalaSig;
const #353 = Asciz	InnerClasses;
const #354 = Asciz	$anonfun$startElement$1;
const #355 = Asciz	$anonfun$processingInstruction$1;
const #356 = Asciz	scala/xml/factory/XMLLoader;
const #357 = class	#356;	//  scala/xml/factory/XMLLoader
const #358 = Asciz	scala/ScalaObject;
const #359 = class	#358;	//  scala/ScalaObject

{
public scala.xml.parsing.FactoryAdapter();
  Code:
   Stack=3, Locals=1, Args_size=1
   0:	aload_0
   1:	invokespecial	#29; //Method org/xml/sax/helpers/DefaultHandler."<init>":()V
   4:	aload_0
   5:	invokestatic	#35; //Method scala/xml/factory/XMLLoader$class.$init$:(Lscala/xml/factory/XMLLoader;)V
   8:	aload_0
   9:	aconst_null
   10:	pop
   11:	aconst_null
   12:	putfield	#39; //Field rootElem:Lscala/xml/Node;
   15:	aload_0
   16:	new	#41; //class scala/collection/mutable/StringBuilder
   19:	dup
   20:	invokespecial	#42; //Method scala/collection/mutable/StringBuilder."<init>":()V
   23:	putfield	#44; //Field buffer:Lscala/collection/mutable/StringBuilder;
   26:	aload_0
   27:	new	#46; //class scala/collection/mutable/Stack
   30:	dup
   31:	invokespecial	#47; //Method scala/collection/mutable/Stack."<init>":()V
   34:	putfield	#49; //Field attribStack:Lscala/collection/mutable/Stack;
   37:	aload_0
   38:	new	#46; //class scala/collection/mutable/Stack
   41:	dup
   42:	invokespecial	#47; //Method scala/collection/mutable/Stack."<init>":()V
   45:	putfield	#51; //Field hStack:Lscala/collection/mutable/Stack;
   48:	aload_0
   49:	new	#46; //class scala/collection/mutable/Stack
   52:	dup
   53:	invokespecial	#47; //Method scala/collection/mutable/Stack."<init>":()V
   56:	putfield	#53; //Field tagStack:Lscala/collection/mutable/Stack;
   59:	aload_0
   60:	new	#46; //class scala/collection/mutable/Stack
   63:	dup
   64:	invokespecial	#47; //Method scala/collection/mutable/Stack."<init>":()V
   67:	putfield	#55; //Field scopeStack:Lscala/collection/mutable/Stack;
   70:	aload_0
   71:	aconst_null
   72:	pop
   73:	aconst_null
   74:	putfield	#57; //Field curTag:Ljava/lang/String;
   77:	aload_0
   78:	iconst_0
   79:	putfield	#59; //Field capture:Z
   82:	aload_0
   83:	iconst_0
   84:	putfield	#61; //Field normalizeWhitespace:Z
   87:	return
  LineNumberTable: 
   line 45: 0
   line 47: 8
   line 49: 15
   line 50: 26
   line 51: 37
   line 52: 48
   line 53: 59
   line 55: 70
   line 56: 77
   line 88: 82


public void processingInstruction(java.lang.String, java.lang.String);
  Code:
   Stack=4, Locals=3, Args_size=3
   0:	aload_0
   1:	aload_1
   2:	aload_2
   3:	invokevirtual	#67; //Method createProcInstr:(Ljava/lang/String;Ljava/lang/String;)Lscala/collection/Sequence;
   6:	new	#69; //class scala/xml/parsing/FactoryAdapter$$anonfun$processingInstruction$1
   9:	dup
   10:	aload_0
   11:	invokespecial	#72; //Method scala/xml/parsing/FactoryAdapter$$anonfun$processingInstruction$1."<init>":(Lscala/xml/parsing/FactoryAdapter;)V
   14:	invokeinterface	#78,  2; //InterfaceMethod scala/collection/generic/IterableTemplate.foreach:(Lscala/Function1;)V
   19:	return
  LineNumberTable: 
   line 221: 0

  LocalVariableTable: 
   Start  Length  Slot  Name   Signature
   0      20      0    this       Lscala/xml/parsing/FactoryAdapter;
   0      20      1    target       Ljava/lang/String;
   0      20      2    data       Ljava/lang/String;


public void endElement(java.lang.String, java.lang.String, java.lang.String);
  Code:
   Stack=7, Locals=12, Args_size=4
   0:	aload_0
   1:	invokevirtual	#88; //Method captureText:()V
   4:	aload_0
   5:	invokevirtual	#91; //Method attribStack:()Lscala/collection/mutable/Stack;
   8:	invokevirtual	#95; //Method scala/collection/mutable/Stack.pop:()Ljava/lang/Object;
   11:	checkcast	#97; //class scala/xml/MetaData
   14:	astore	4
   16:	getstatic	#103; //Field scala/collection/immutable/Nil$.MODULE$:Lscala/collection/immutable/Nil$;
   19:	astore	5
   21:	aload_0
   22:	invokevirtual	#105; //Method hStack:()Lscala/collection/mutable/Stack;
   25:	invokevirtual	#95; //Method scala/collection/mutable/Stack.pop:()Ljava/lang/Object;
   28:	checkcast	#107; //class scala/xml/Node
   31:	astore	6
   33:	aload	6
   35:	ifnull	66
   38:	aload	6
   40:	astore	7
   42:	aload	5
   44:	aload	7
   46:	invokevirtual	#113; //Method scala/collection/immutable/List.$colon$colon:(Ljava/lang/Object;)Lscala/collection/immutable/List;
   49:	astore	5
   51:	aload_0
   52:	invokevirtual	#105; //Method hStack:()Lscala/collection/mutable/Stack;
   55:	invokevirtual	#95; //Method scala/collection/mutable/Stack.pop:()Ljava/lang/Object;
   58:	checkcast	#107; //class scala/xml/Node
   61:	astore	6
   63:	goto	33
   66:	aload_3
   67:	ldc	#114; //int 58
   69:	invokevirtual	#120; //Method java/lang/String.indexOf:(I)I
   72:	istore	8
   74:	iconst_m1
   75:	iload	8
   77:	if_icmpne	84
   80:	aload_3
   81:	goto	96
   84:	aload_3
   85:	iload	8
   87:	iconst_1
   88:	iadd
   89:	aload_3
   90:	invokevirtual	#124; //Method java/lang/String.length:()I
   93:	invokevirtual	#128; //Method java/lang/String.substring:(II)Ljava/lang/String;
   96:	astore	9
   98:	aload_0
   99:	invokevirtual	#130; //Method scopeStack:()Lscala/collection/mutable/Stack;
   102:	invokevirtual	#95; //Method scala/collection/mutable/Stack.pop:()Ljava/lang/Object;
   105:	checkcast	#132; //class scala/xml/NamespaceBinding
   108:	astore	10
   110:	iconst_m1
   111:	iload	8
   113:	if_icmpne	122
   116:	aconst_null
   117:	pop
   118:	aconst_null
   119:	goto	129
   122:	aload_3
   123:	iconst_0
   124:	iload	8
   126:	invokevirtual	#128; //Method java/lang/String.substring:(II)Ljava/lang/String;
   129:	astore	11
   131:	aload_0
   132:	aload_0
   133:	aload	11
   135:	aload	9
   137:	aload	4
   139:	aload	10
   141:	aload	5
   143:	invokevirtual	#136; //Method createNode:(Ljava/lang/String;Ljava/lang/String;Lscala/xml/MetaData;Lscala/xml/NamespaceBinding;Lscala/collection/immutable/List;)Lscala/xml/Node;
   146:	invokevirtual	#140; //Method rootElem_$eq:(Lscala/xml/Node;)V
   149:	aload_0
   150:	invokevirtual	#105; //Method hStack:()Lscala/collection/mutable/Stack;
   153:	aload_0
   154:	invokevirtual	#143; //Method rootElem:()Lscala/xml/Node;
   157:	invokevirtual	#147; //Method scala/collection/mutable/Stack.push:(Ljava/lang/Object;)Lscala/collection/mutable/Stack;
   160:	pop
   161:	aload_0
   162:	aload_0
   163:	invokevirtual	#149; //Method tagStack:()Lscala/collection/mutable/Stack;
   166:	invokevirtual	#95; //Method scala/collection/mutable/Stack.pop:()Ljava/lang/Object;
   169:	checkcast	#116; //class java/lang/String
   172:	invokevirtual	#153; //Method curTag_$eq:(Ljava/lang/String;)V
   175:	aload_0
   176:	aload_0
   177:	invokevirtual	#156; //Method curTag:()Ljava/lang/String;
   180:	ifnull	194
   183:	aload_0
   184:	aload_0
   185:	invokevirtual	#156; //Method curTag:()Ljava/lang/String;
   188:	invokevirtual	#160; //Method nodeContainsText:(Ljava/lang/String;)Z
   191:	goto	195
   194:	iconst_0
   195:	invokevirtual	#164; //Method capture_$eq:(Z)V
   198:	return
  LineNumberTable: 
   line 186: 0
   line 188: 4
   line 191: 16
   line 192: 21
   line 193: 33
   line 194: 38
   line 195: 51
   line 193: 63
   line 198: 66
   line 200: 74
   line 201: 84
   line 199: 96
   line 203: 98
   line 205: 110
   line 206: 131
   line 208: 149
   line 211: 161
   line 213: 175
   line 214: 176
   line 215: 194
   line 213: 195

  LocalVariableTable: 
   Start  Length  Slot  Name   Signature
   0      199      0    this       Lscala/xml/parsing/FactoryAdapter;
   0      199      1    uri       Ljava/lang/String;
   0      199      2    _localName       Ljava/lang/String;
   0      199      3    qname       Ljava/lang/String;
   16      182      4    metaData       Lscala/xml/MetaData;
   21      177      5    v       Lscala/collection/immutable/List;
   33      165      6    child       Lscala/xml/Node;
   74      124      8    colon       I
   98      100      9    localName       Ljava/lang/String;
   110      88      10    scp       Lscala/xml/NamespaceBinding;
   131      67      11    pre       Ljava/lang/String;


public void captureText();
  Code:
   Stack=3, Locals=2, Args_size=1
   0:	aload_0
   1:	invokevirtual	#181; //Method capture:()Z
   4:	ifeq	44
   7:	aload_0
   8:	invokevirtual	#184; //Method buffer:()Lscala/collection/mutable/StringBuilder;
   11:	invokevirtual	#187; //Method scala/collection/mutable/StringBuilder.toString:()Ljava/lang/String;
   14:	astore_1
   15:	aload_1
   16:	invokevirtual	#124; //Method java/lang/String.length:()I
   19:	iconst_0
   20:	if_icmple	38
   23:	aload_0
   24:	invokevirtual	#105; //Method hStack:()Lscala/collection/mutable/Stack;
   27:	aload_0
   28:	aload_1
   29:	invokevirtual	#191; //Method createText:(Ljava/lang/String;)Lscala/xml/Text;
   32:	invokevirtual	#147; //Method scala/collection/mutable/Stack.push:(Ljava/lang/Object;)Lscala/collection/mutable/Stack;
   35:	goto	47
   38:	getstatic	#197; //Field scala/runtime/BoxedUnit.UNIT:Lscala/runtime/BoxedUnit;
   41:	goto	47
   44:	getstatic	#197; //Field scala/runtime/BoxedUnit.UNIT:Lscala/runtime/BoxedUnit;
   47:	pop
   48:	aload_0
   49:	invokevirtual	#184; //Method buffer:()Lscala/collection/mutable/StringBuilder;
   52:	iconst_0
   53:	invokevirtual	#201; //Method scala/collection/mutable/StringBuilder.setLength:(I)V
   56:	return
  LineNumberTable: 
   line 171: 0
   line 172: 7
   line 173: 15
   line 174: 23
   line 173: 38
   line 171: 44
   line 176: 48

  LocalVariableTable: 
   Start  Length  Slot  Name   Signature
   0      57      0    this       Lscala/xml/parsing/FactoryAdapter;
   15      29      1    text       Ljava/lang/String;


public void startElement(java.lang.String, java.lang.String, java.lang.String, org.xml.sax.Attributes);
  Code:
   Stack=7, Locals=9, Args_size=5
   0:	aload_0
   1:	invokevirtual	#88; //Method captureText:()V
   4:	aload_0
   5:	invokevirtual	#149; //Method tagStack:()Lscala/collection/mutable/Stack;
   8:	aload_0
   9:	invokevirtual	#156; //Method curTag:()Ljava/lang/String;
   12:	invokevirtual	#147; //Method scala/collection/mutable/Stack.push:(Ljava/lang/Object;)Lscala/collection/mutable/Stack;
   15:	pop
   16:	aload_0
   17:	aload_3
   18:	invokevirtual	#153; //Method curTag_$eq:(Ljava/lang/String;)V
   21:	aload_3
   22:	ldc	#114; //int 58
   24:	invokevirtual	#120; //Method java/lang/String.indexOf:(I)I
   27:	istore	5
   29:	iconst_m1
   30:	iload	5
   32:	if_icmpne	39
   35:	aload_3
   36:	goto	51
   39:	aload_3
   40:	iload	5
   42:	iconst_1
   43:	iadd
   44:	aload_3
   45:	invokevirtual	#124; //Method java/lang/String.length:()I
   48:	invokevirtual	#128; //Method java/lang/String.substring:(II)Ljava/lang/String;
   51:	astore	6
   53:	aload_0
   54:	aload_0
   55:	aload	6
   57:	invokevirtual	#160; //Method nodeContainsText:(Ljava/lang/String;)Z
   60:	invokevirtual	#164; //Method capture_$eq:(Z)V
   63:	aload_0
   64:	invokevirtual	#105; //Method hStack:()Lscala/collection/mutable/Stack;
   67:	aconst_null
   68:	pop
   69:	aconst_null
   70:	invokevirtual	#147; //Method scala/collection/mutable/Stack.push:(Ljava/lang/Object;)Lscala/collection/mutable/Stack;
   73:	pop
   74:	new	#206; //class scala/runtime/ObjectRef
   77:	dup
   78:	getstatic	#211; //Field scala/xml/Null$.MODULE$:Lscala/xml/Null$;
   81:	invokespecial	#214; //Method scala/runtime/ObjectRef."<init>":(Ljava/lang/Object;)V
   84:	astore	7
   86:	new	#206; //class scala/runtime/ObjectRef
   89:	dup
   90:	aload_0
   91:	invokevirtual	#130; //Method scopeStack:()Lscala/collection/mutable/Stack;
   94:	invokevirtual	#217; //Method scala/collection/mutable/Stack.top:()Ljava/lang/Object;
   97:	checkcast	#132; //class scala/xml/NamespaceBinding
   100:	invokespecial	#214; //Method scala/runtime/ObjectRef."<init>":(Ljava/lang/Object;)V
   103:	astore	8
   105:	getstatic	#222; //Field scala/collection/immutable/List$.MODULE$:Lscala/collection/immutable/List$;
   108:	iconst_0
   109:	aload	4
   111:	invokeinterface	#227,  1; //InterfaceMethod org/xml/sax/Attributes.getLength:()I
   116:	invokevirtual	#231; //Method scala/collection/immutable/List$.range:(II)Lscala/collection/Traversable;
   119:	checkcast	#233; //class scala/collection/generic/LinearSequenceTemplate
   122:	new	#235; //class scala/xml/parsing/FactoryAdapter$$anonfun$startElement$1
   125:	dup
   126:	aload_0
   127:	aload	4
   129:	aload	7
   131:	aload	8
   133:	invokespecial	#238; //Method scala/xml/parsing/FactoryAdapter$$anonfun$startElement$1."<init>":(Lscala/xml/parsing/FactoryAdapter;Lorg/xml/sax/Attributes;Lscala/runtime/ObjectRef;Lscala/runtime/ObjectRef;)V
   136:	invokeinterface	#239,  2; //InterfaceMethod scala/collection/generic/LinearSequenceTemplate.foreach:(Lscala/Function1;)V
   141:	aload_0
   142:	invokevirtual	#130; //Method scopeStack:()Lscala/collection/mutable/Stack;
   145:	aload	8
   147:	getfield	#243; //Field scala/runtime/ObjectRef.elem:Ljava/lang/Object;
   150:	checkcast	#132; //class scala/xml/NamespaceBinding
   153:	invokevirtual	#147; //Method scala/collection/mutable/Stack.push:(Ljava/lang/Object;)Lscala/collection/mutable/Stack;
   156:	pop
   157:	aload_0
   158:	invokevirtual	#91; //Method attribStack:()Lscala/collection/mutable/Stack;
   161:	aload	7
   163:	getfield	#243; //Field scala/runtime/ObjectRef.elem:Ljava/lang/Object;
   166:	checkcast	#97; //class scala/xml/MetaData
   169:	invokevirtual	#147; //Method scala/collection/mutable/Stack.push:(Ljava/lang/Object;)Lscala/collection/mutable/Stack;
   172:	pop
   173:	return
  LineNumberTable: 
   line 123: 0
   line 125: 4
   line 126: 16
   line 128: 21
   line 129: 29
   line 133: 53
   line 135: 63
   line 136: 74
   line 138: 86
   line 139: 105
   line 162: 141
   line 163: 157

  LocalVariableTable: 
   Start  Length  Slot  Name   Signature
   0      174      0    this       Lscala/xml/parsing/FactoryAdapter;
   0      174      1    uri       Ljava/lang/String;
   0      174      2    _localName       Ljava/lang/String;
   0      174      3    qname       Ljava/lang/String;
   0      174      4    attributes$1       Lorg/xml/sax/Attributes;
   29      144      5    colon       I
   53      120      6    localName       Ljava/lang/String;
   86      87      7    m$1       Lscala/runtime/ObjectRef;
   105      68      8    scpe$1       Lscala/runtime/ObjectRef;


public void characters(char[], int, int);
  Code:
   Stack=4, Locals=6, Args_size=4
   0:	aload_0
   1:	invokevirtual	#181; //Method capture:()Z
   4:	ifeq	115
   7:	aload_0
   8:	invokevirtual	#252; //Method normalizeWhitespace:()Z
   11:	ifeq	103
   14:	iload_2
   15:	istore	4
   17:	iload	4
   19:	iload_2
   20:	iload_3
   21:	iadd
   22:	if_icmpge	102
   25:	getstatic	#257; //Field scala/Predef$.MODULE$:Lscala/Predef$;
   28:	aload_1
   29:	iload	4
   31:	caload
   32:	invokevirtual	#261; //Method scala/Predef$.charWrapper:(C)Lscala/runtime/RichChar;
   35:	invokevirtual	#266; //Method scala/runtime/RichChar.isWhitespace:()Z
   38:	ifeq	47
   41:	ldc_w	#267; //int 32
   44:	goto	51
   47:	aload_1
   48:	iload	4
   50:	caload
   51:	istore	5
   53:	aload_0
   54:	invokevirtual	#184; //Method buffer:()Lscala/collection/mutable/StringBuilder;
   57:	iload	5
   59:	invokevirtual	#271; //Method scala/collection/mutable/StringBuilder.append:(C)Lscala/collection/mutable/StringBuilder;
   62:	pop
   63:	iload	4
   65:	iconst_1
   66:	iadd
   67:	istore	4
   69:	iload	5
   71:	ldc_w	#267; //int 32
   74:	if_icmpne	17
   77:	getstatic	#257; //Field scala/Predef$.MODULE$:Lscala/Predef$;
   80:	aload_1
   81:	iload	4
   83:	caload
   84:	invokevirtual	#261; //Method scala/Predef$.charWrapper:(C)Lscala/runtime/RichChar;
   87:	invokevirtual	#266; //Method scala/runtime/RichChar.isWhitespace:()Z
   90:	ifeq	17
   93:	iload	4
   95:	iconst_1
   96:	iadd
   97:	istore	4
   99:	goto	77
   102:	return
   103:	aload_0
   104:	invokevirtual	#184; //Method buffer:()Lscala/collection/mutable/StringBuilder;
   107:	aload_1
   108:	iload_2
   109:	iload_3
   110:	invokevirtual	#275; //Method scala/collection/mutable/StringBuilder.appendAll:([CII)Lscala/collection/mutable/StringBuilder;
   113:	pop
   114:	return
   115:	return
  LineNumberTable: 
   line 96: 0
   line 97: 7
   line 103: 14
   line 104: 17
   line 105: 25
   line 106: 53
   line 107: 63
   line 109: 69
   line 95: 102
   line 99: 103
   line 96: 115

  LocalVariableTable: 
   Start  Length  Slot  Name   Signature
   0      116      0    this       Lscala/xml/parsing/FactoryAdapter;
   0      116      1    ch       [C
   0      116      2    offset       I
   0      116      3    length       I
   17      86      4    i       I
   53      49      5    c       C


public boolean normalizeWhitespace();
  Code:
   Stack=1, Locals=1, Args_size=1
   0:	aload_0
   1:	getfield	#61; //Field normalizeWhitespace:Z
   4:	ireturn
  LineNumberTable: 
   line 88: 0


public abstract scala.collection.Sequence createProcInstr(java.lang.String, java.lang.String);
  Signature: length = 0x2
   01 1A 

public abstract scala.xml.Text createText(java.lang.String);

public abstract scala.xml.Node createNode(java.lang.String, java.lang.String, scala.xml.MetaData, scala.xml.NamespaceBinding, scala.collection.immutable.List);
  Signature: length = 0x2
   01 1B 

public abstract boolean nodeContainsText(java.lang.String);

public void capture_$eq(boolean);
  Code:
   Stack=2, Locals=2, Args_size=2
   0:	aload_0
   1:	iload_1
   2:	putfield	#59; //Field capture:Z
   5:	return
  LineNumberTable: 
   line 56: 0


public boolean capture();
  Code:
   Stack=1, Locals=1, Args_size=1
   0:	aload_0
   1:	getfield	#59; //Field capture:Z
   4:	ireturn
  LineNumberTable: 
   line 56: 0


public void curTag_$eq(java.lang.String);
  Code:
   Stack=2, Locals=2, Args_size=2
   0:	aload_0
   1:	aload_1
   2:	putfield	#57; //Field curTag:Ljava/lang/String;
   5:	return
  LineNumberTable: 
   line 55: 0


public java.lang.String curTag();
  Code:
   Stack=1, Locals=1, Args_size=1
   0:	aload_0
   1:	getfield	#57; //Field curTag:Ljava/lang/String;
   4:	areturn
  LineNumberTable: 
   line 55: 0


public void scopeStack_$eq(scala.collection.mutable.Stack);
  Code:
   Stack=2, Locals=2, Args_size=2
   0:	aload_0
   1:	aload_1
   2:	putfield	#55; //Field scopeStack:Lscala/collection/mutable/Stack;
   5:	return
  LineNumberTable: 
   line 53: 0

  Signature: length = 0x2
   01 1E 

public scala.collection.mutable.Stack scopeStack();
  Code:
   Stack=1, Locals=1, Args_size=1
   0:	aload_0
   1:	getfield	#55; //Field scopeStack:Lscala/collection/mutable/Stack;
   4:	areturn
  LineNumberTable: 
   line 53: 0

  Signature: length = 0x2
   01 1F 

public scala.collection.mutable.Stack tagStack();
  Code:
   Stack=1, Locals=1, Args_size=1
   0:	aload_0
   1:	getfield	#53; //Field tagStack:Lscala/collection/mutable/Stack;
   4:	areturn
  LineNumberTable: 
   line 52: 0

  Signature: length = 0x2
   01 20 

public scala.collection.mutable.Stack hStack();
  Code:
   Stack=1, Locals=1, Args_size=1
   0:	aload_0
   1:	getfield	#51; //Field hStack:Lscala/collection/mutable/Stack;
   4:	areturn
  LineNumberTable: 
   line 51: 0

  Signature: length = 0x2
   01 21 

public scala.collection.mutable.Stack attribStack();
  Code:
   Stack=1, Locals=1, Args_size=1
   0:	aload_0
   1:	getfield	#49; //Field attribStack:Lscala/collection/mutable/Stack;
   4:	areturn
  LineNumberTable: 
   line 50: 0

  Signature: length = 0x2
   01 22 

public scala.collection.mutable.StringBuilder buffer();
  Code:
   Stack=1, Locals=1, Args_size=1
   0:	aload_0
   1:	getfield	#44; //Field buffer:Lscala/collection/mutable/StringBuilder;
   4:	areturn
  LineNumberTable: 
   line 49: 0


public void rootElem_$eq(scala.xml.Node);
  Code:
   Stack=2, Locals=2, Args_size=2
   0:	aload_0
   1:	aload_1
   2:	putfield	#39; //Field rootElem:Lscala/xml/Node;
   5:	return
  LineNumberTable: 
   line 47: 0


public scala.xml.Node rootElem();
  Code:
   Stack=1, Locals=1, Args_size=1
   0:	aload_0
   1:	getfield	#39; //Field rootElem:Lscala/xml/Node;
   4:	areturn
  LineNumberTable: 
   line 47: 0


public scala.xml.Node loadString(java.lang.String);
  Code:
   Stack=2, Locals=2, Args_size=2
   0:	aload_0
   1:	aload_1
   2:	invokestatic	#295; //Method scala/xml/factory/XMLLoader$class.loadString:(Lscala/xml/factory/XMLLoader;Ljava/lang/String;)Lscala/xml/Node;
   5:	areturn
  LineNumberTable: 
   line 45: 0

  LocalVariableTable: 
   Start  Length  Slot  Name   Signature
   0      6      0    this       Lscala/xml/parsing/FactoryAdapter;
   0      6      1    string       Ljava/lang/String;


public scala.xml.Node load(org.xml.sax.InputSource);
  Code:
   Stack=2, Locals=2, Args_size=2
   0:	aload_0
   1:	aload_1
   2:	invokestatic	#301; //Method scala/xml/factory/XMLLoader$class.load:(Lscala/xml/factory/XMLLoader;Lorg/xml/sax/InputSource;)Lscala/xml/Node;
   5:	areturn
  LineNumberTable: 
   line 45: 0

  LocalVariableTable: 
   Start  Length  Slot  Name   Signature
   0      6      0    this       Lscala/xml/parsing/FactoryAdapter;
   0      6      1    source       Lorg/xml/sax/InputSource;


public scala.xml.Node load(java.lang.String);
  Code:
   Stack=2, Locals=2, Args_size=2
   0:	aload_0
   1:	aload_1
   2:	invokestatic	#305; //Method scala/xml/factory/XMLLoader$class.load:(Lscala/xml/factory/XMLLoader;Ljava/lang/String;)Lscala/xml/Node;
   5:	areturn
  LineNumberTable: 
   line 45: 0

  LocalVariableTable: 
   Start  Length  Slot  Name   Signature
   0      6      0    this       Lscala/xml/parsing/FactoryAdapter;
   0      6      1    sysID       Ljava/lang/String;


public scala.xml.Node load(java.io.Reader);
  Code:
   Stack=2, Locals=2, Args_size=2
   0:	aload_0
   1:	aload_1
   2:	invokestatic	#310; //Method scala/xml/factory/XMLLoader$class.load:(Lscala/xml/factory/XMLLoader;Ljava/io/Reader;)Lscala/xml/Node;
   5:	areturn
  LineNumberTable: 
   line 45: 0

  LocalVariableTable: 
   Start  Length  Slot  Name   Signature
   0      6      0    this       Lscala/xml/parsing/FactoryAdapter;
   0      6      1    reader       Ljava/io/Reader;


public scala.xml.Node load(java.io.InputStream);
  Code:
   Stack=2, Locals=2, Args_size=2
   0:	aload_0
   1:	aload_1
   2:	invokestatic	#316; //Method scala/xml/factory/XMLLoader$class.load:(Lscala/xml/factory/XMLLoader;Ljava/io/InputStream;)Lscala/xml/Node;
   5:	areturn
  LineNumberTable: 
   line 45: 0

  LocalVariableTable: 
   Start  Length  Slot  Name   Signature
   0      6      0    this       Lscala/xml/parsing/FactoryAdapter;
   0      6      1    is       Ljava/io/InputStream;


public scala.xml.Node loadFile(java.lang.String);
  Code:
   Stack=2, Locals=2, Args_size=2
   0:	aload_0
   1:	aload_1
   2:	invokestatic	#321; //Method scala/xml/factory/XMLLoader$class.loadFile:(Lscala/xml/factory/XMLLoader;Ljava/lang/String;)Lscala/xml/Node;
   5:	areturn
  LineNumberTable: 
   line 45: 0

  LocalVariableTable: 
   Start  Length  Slot  Name   Signature
   0      6      0    this       Lscala/xml/parsing/FactoryAdapter;
   0      6      1    name       Ljava/lang/String;


public scala.xml.Node loadFile(java.io.FileDescriptor);
  Code:
   Stack=2, Locals=2, Args_size=2
   0:	aload_0
   1:	aload_1
   2:	invokestatic	#326; //Method scala/xml/factory/XMLLoader$class.loadFile:(Lscala/xml/factory/XMLLoader;Ljava/io/FileDescriptor;)Lscala/xml/Node;
   5:	areturn
  LineNumberTable: 
   line 45: 0

  LocalVariableTable: 
   Start  Length  Slot  Name   Signature
   0      6      0    this       Lscala/xml/parsing/FactoryAdapter;
   0      6      1    fd       Ljava/io/FileDescriptor;


public scala.xml.Node loadFile(java.io.File);
  Code:
   Stack=2, Locals=2, Args_size=2
   0:	aload_0
   1:	aload_1
   2:	invokestatic	#332; //Method scala/xml/factory/XMLLoader$class.loadFile:(Lscala/xml/factory/XMLLoader;Ljava/io/File;)Lscala/xml/Node;
   5:	areturn
  LineNumberTable: 
   line 45: 0

  LocalVariableTable: 
   Start  Length  Slot  Name   Signature
   0      6      0    this       Lscala/xml/parsing/FactoryAdapter;
   0      6      1    file       Ljava/io/File;


public scala.xml.Node loadXML(org.xml.sax.InputSource, javax.xml.parsers.SAXParser);
  Code:
   Stack=3, Locals=3, Args_size=3
   0:	aload_0
   1:	aload_1
   2:	aload_2
   3:	invokestatic	#339; //Method scala/xml/factory/XMLLoader$class.loadXML:(Lscala/xml/factory/XMLLoader;Lorg/xml/sax/InputSource;Ljavax/xml/parsers/SAXParser;)Lscala/xml/Node;
   6:	areturn
  LineNumberTable: 
   line 45: 0

  LocalVariableTable: 
   Start  Length  Slot  Name   Signature
   0      7      0    this       Lscala/xml/parsing/FactoryAdapter;
   0      7      1    source       Lorg/xml/sax/InputSource;
   0      7      2    parser       Ljavax/xml/parsers/SAXParser;


public javax.xml.parsers.SAXParser parser();
  Code:
   Stack=1, Locals=1, Args_size=1
   0:	aload_0
   1:	invokestatic	#345; //Method scala/xml/factory/XMLLoader$class.parser:(Lscala/xml/factory/XMLLoader;)Ljavax/xml/parsers/SAXParser;
   4:	areturn
  LineNumberTable: 
   line 45: 0


public scala.xml.parsing.FactoryAdapter adapter();
  Code:
   Stack=1, Locals=1, Args_size=1
   0:	aload_0
   1:	invokestatic	#350; //Method scala/xml/factory/XMLLoader$class.adapter:(Lscala/xml/factory/XMLLoader;)Lscala/xml/parsing/FactoryAdapter;
   4:	areturn
  LineNumberTable: 
   line 45: 0


}

