Compiled from "FatalError.scala"
public class scala.xml.parsing.FatalError extends java.lang.RuntimeException implements scala.ScalaObject,scala.Product,java.io.Serializable
  SourceFile: "FatalError.scala"
  ScalaSig: length = 0x2E2
   05 00 6F 06 08 01 02 FFFFFF84 FFFFFF80 FFFFFF80 FFFFFF80 40 09 02 0A 46
   61 74 61 6C 45 72 72 6F 72 0A 02 03 04 01 07 70
   61 72 73 69 6E 67 0A 02 05 06 01 03 78 6D 6C 0A
   01 07 01 05 73 63 61 6C 61 03 00 13 04 00 0A 12
   16 10 02 0B 10 0D 01 0C 0A 02 0D 0E 01 04 6C 61
   6E 67 0A 01 0F 01 04 6A 61 76 61 09 02 11 0C 02
   10 52 75 6E 74 69 6D 65 45 78 63 65 70 74 69 6F
   6E 10 02 13 14 0D 01 06 09 02 15 06 02 0B 53 63
   61 6C 61 4F 62 6A 65 63 74 10 02 13 17 09 02 18
   06 02 07 50 72 6F 64 75 63 74 08 08 1A 00 FFFFFF82 FFFFFFCA
   FFFFFF80 FFFFFF84 00 1B 01 03 6D 73 67 15 01 1C 10 02 1D 20
   0E 02 13 1E 09 02 1F 06 01 06 50 72 65 64 65 66
   09 02 21 22 02 06 53 74 72 69 6E 67 0A 02 1F 06
   08 08 24 00 FFFFFF82 FFFFFF88 FFFFFFA0 FFFFFF80 04 1C 01 04 6D 73 67 20
   08 05 26 00 FFFFFF84 00 27 01 06 3C 69 6E 69 74 3E 14
   02 28 2A 10 02 29 00 0D 01 02 08 05 1A 25 FFFFFFC0 00
   1C 08 07 2C 00 FFFFFF81 FFFFFF80 FFFFFF84 00 2D 01 04 63 6F 70 79
   14 02 28 2E 08 08 2F 1A 2B FFFFFF90 FFFFFF80 FFFFFFC0 00 1C 08 07
   30 00 FFFFFF91 FFFFFF80 FFFFFF84 00 1B 01 0E 63 6F 70 79 24 64 65
   66 61 75 6C 74 24 31 08 08 32 00 FFFFFF84 FFFFFF80 FFFFFF80 FFFFFF84 20
   33 01 08 68 61 73 68 43 6F 64 65 14 01 34 10 02
   13 35 09 02 36 06 02 03 49 6E 74 08 08 38 00 FFFFFF84
   FFFFFF80 FFFFFF80 FFFFFF84 20 39 01 06 65 71 75 61 6C 73 14 02 3A
   3D 10 02 13 3B 09 02 3C 06 02 07 42 6F 6F 6C 65
   61 6E 08 07 3E 37 FFFFFF81 FFFFFF80 FFFFFFC0 00 3F 01 03 78 24 31
   10 02 13 40 09 02 41 06 02 03 41 6E 79 08 08 43
   00 FFFFFF84 FFFFFF80 FFFFFF80 FFFFFF84 20 44 01 0D 70 72 6F 64 75 63 74
   50 72 65 66 69 78 15 01 45 10 02 0B 46 09 02 21
   0C 08 08 48 00 FFFFFF84 FFFFFF80 FFFFFF80 FFFFFF84 20 49 01 0C 70 72 6F
   64 75 63 74 41 72 69 74 79 15 01 34 08 08 4B 00
   FFFFFF84 FFFFFF80 FFFFFF80 FFFFFF84 20 4C 01 0E 70 72 6F 64 75 63 74 45
   6C 65 6D 65 6E 74 14 02 3F 4D 08 07 3E 4A FFFFFF81 FFFFFF80
   FFFFFFC0 00 34 08 08 4F 00 FFFFFF84 FFFFFF80 FFFFFF80 FFFFFF84 20 50 01 08 63
   61 6E 45 71 75 61 6C 14 02 3A 51 08 07 3E 4E FFFFFF81
   FFFFFF80 FFFFFFC0 00 3F 28 02 00 53 10 02 13 54 09 02 55 06
   02 0C 73 65 72 69 61 6C 69 7A 61 62 6C 65 07 07
   57 02 FFFFFF81 FFFFFF80 FFFFFF88 02 58 01 0A 46 61 74 61 6C 45 72
   72 6F 72 10 02 29 59 06 08 01 02 FFFFFF84 FFFFFF81 FFFFFF80 FFFFFF88 02
   5A 13 04 59 5B 5E 12 10 02 0B 5C 09 02 5D 0C 02
   06 4F 62 6A 65 63 74 10 04 13 5F 1C 28 09 02 60
   06 02 09 46 75 6E 63 74 69 6F 6E 31 08 05 26 59
   FFFFFF84 00 62 14 01 58 08 07 64 59 FFFFFF81 FFFFFF80 FFFFFF84 40 65 01
   05 61 70 70 6C 79 14 02 28 66 08 05 1A 63 FFFFFFC0 00
   1C 08 07 68 59 FFFFFF81 FFFFFF80 FFFFFF84 40 69 01 07 75 6E 61 70
   70 6C 79 14 02 6A 6D 10 03 13 6B 1C 09 02 6C 06
   02 04 53 6F 6D 65 08 05 6E 67 FFFFFFC0 00 28 01 03 78
   24 30 
  minor version: 0
  major version: 49
  Constant pool:
const #1 = Asciz	SourceFile;
const #2 = Asciz	FatalError.scala;
const #3 = Asciz	msg;
const #4 = Asciz	Ljava/lang/String;;
const #5 = Asciz	<init>;
const #6 = Asciz	(Ljava/lang/String;)V;
const #7 = Asciz	Code;
const #8 = Asciz	LineNumberTable;
const #9 = Asciz	scala/xml/parsing/FatalError;
const #10 = class	#9;	//  scala/xml/parsing/FatalError
const #11 = NameAndType	#3:#4;//  msg:Ljava/lang/String;
const #12 = Field	#10.#11;	//  scala/xml/parsing/FatalError.msg:Ljava/lang/String;
const #13 = Asciz	java/lang/RuntimeException;
const #14 = class	#13;	//  java/lang/RuntimeException
const #15 = NameAndType	#5:#6;//  "<init>":(Ljava/lang/String;)V
const #16 = Method	#14.#15;	//  java/lang/RuntimeException."<init>":(Ljava/lang/String;)V
const #17 = Asciz	scala/Product$class;
const #18 = class	#17;	//  scala/Product$class
const #19 = Asciz	$init$;
const #20 = Asciz	(Lscala/Product;)V;
const #21 = NameAndType	#19:#20;//  $init$:(Lscala/Product;)V
const #22 = Method	#18.#21;	//  scala/Product$class.$init$:(Lscala/Product;)V
const #23 = Asciz	this;
const #24 = Asciz	Lscala/xml/parsing/FatalError;;
const #25 = Asciz	LocalVariableTable;
const #26 = Asciz	gd1$1;
const #27 = Asciz	(Ljava/lang/String;)Z;
const #28 = Asciz	()Ljava/lang/String;;
const #29 = NameAndType	#3:#28;//  msg:()Ljava/lang/String;
const #30 = Method	#10.#29;	//  scala/xml/parsing/FatalError.msg:()Ljava/lang/String;
const #31 = Asciz	java/lang/Object;
const #32 = class	#31;	//  java/lang/Object
const #33 = Asciz	equals;
const #34 = Asciz	(Ljava/lang/Object;)Z;
const #35 = NameAndType	#33:#34;//  equals:(Ljava/lang/Object;)Z
const #36 = Method	#32.#35;	//  java/lang/Object.equals:(Ljava/lang/Object;)Z
const #37 = Asciz	canEqual;
const #38 = Asciz	productElement;
const #39 = Asciz	(I)Ljava/lang/Object;;
const #40 = Asciz	scala/runtime/BoxesRunTime;
const #41 = class	#40;	//  scala/runtime/BoxesRunTime
const #42 = Asciz	boxToInteger;
const #43 = Asciz	(I)Ljava/lang/Integer;;
const #44 = NameAndType	#42:#43;//  boxToInteger:(I)Ljava/lang/Integer;
const #45 = Method	#41.#44;	//  scala/runtime/BoxesRunTime.boxToInteger:(I)Ljava/lang/Integer;
const #46 = Asciz	(Ljava/lang/Object;Ljava/lang/Object;)Z;
const #47 = NameAndType	#33:#46;//  equals:(Ljava/lang/Object;Ljava/lang/Object;)Z
const #48 = Method	#41.#47;	//  scala/runtime/BoxesRunTime.equals:(Ljava/lang/Object;Ljava/lang/Object;)Z
const #49 = Asciz	java/lang/IndexOutOfBoundsException;
const #50 = class	#49;	//  java/lang/IndexOutOfBoundsException
const #51 = Asciz	toString;
const #52 = NameAndType	#51:#28;//  toString:()Ljava/lang/String;
const #53 = Method	#32.#52;	//  java/lang/Object.toString:()Ljava/lang/String;
const #54 = Method	#50.#15;	//  java/lang/IndexOutOfBoundsException."<init>":(Ljava/lang/String;)V
const #55 = Asciz	temp4;
const #56 = Asciz	I;
const #57 = Asciz	productArity;
const #58 = Asciz	()I;
const #59 = Asciz	productPrefix;
const #60 = Asciz	FatalError;
const #61 = String	#60;	//  FatalError
const #62 = NameAndType	#26:#27;//  gd1$1:(Ljava/lang/String;)Z
const #63 = Method	#10.#62;	//  scala/xml/parsing/FatalError.gd1$1:(Ljava/lang/String;)Z
const #64 = Asciz	scala/Product;
const #65 = class	#64;	//  scala/Product
const #66 = NameAndType	#37:#34;//  canEqual:(Ljava/lang/Object;)Z
const #67 = InterfaceMethod	#65.#66;	//  scala/Product.canEqual:(Ljava/lang/Object;)Z
const #68 = Asciz	temp1;
const #69 = Asciz	Ljava/lang/Object;;
const #70 = Asciz	temp2;
const #71 = Asciz	temp3;
const #72 = Asciz	msg$1;
const #73 = Asciz	hashCode;
const #74 = Asciz	scala/runtime/ScalaRunTime$;
const #75 = class	#74;	//  scala/runtime/ScalaRunTime$
const #76 = Asciz	MODULE$;
const #77 = Asciz	Lscala/runtime/ScalaRunTime$;;
const #78 = NameAndType	#76:#77;//  MODULE$:Lscala/runtime/ScalaRunTime$;
const #79 = Field	#75.#78;	//  scala/runtime/ScalaRunTime$.MODULE$:Lscala/runtime/ScalaRunTime$;
const #80 = Asciz	_hashCode;
const #81 = Asciz	(Lscala/Product;)I;
const #82 = NameAndType	#80:#81;//  _hashCode:(Lscala/Product;)I
const #83 = Method	#75.#82;	//  scala/runtime/ScalaRunTime$._hashCode:(Lscala/Product;)I
const #84 = Asciz	copy$default$1;
const #85 = Asciz	copy;
const #86 = Asciz	(Ljava/lang/String;)Lscala/xml/parsing/FatalError;;
const #87 = Method	#10.#15;	//  scala/xml/parsing/FatalError."<init>":(Ljava/lang/String;)V
const #88 = Asciz	productElements;
const #89 = Asciz	()Lscala/collection/Iterator;;
const #90 = Asciz	(Lscala/Product;)Lscala/collection/Iterator;;
const #91 = NameAndType	#88:#90;//  productElements:(Lscala/Product;)Lscala/collection/Iterator;
const #92 = Method	#18.#91;	//  scala/Product$class.productElements:(Lscala/Product;)Lscala/collection/Iterator;
const #93 = Asciz	productIterator;
const #94 = NameAndType	#93:#90;//  productIterator:(Lscala/Product;)Lscala/collection/Iterator;
const #95 = Method	#18.#94;	//  scala/Product$class.productIterator:(Lscala/Product;)Lscala/collection/Iterator;
const #96 = Asciz	ScalaSig;
const #97 = Asciz	scala/ScalaObject;
const #98 = class	#97;	//  scala/ScalaObject
const #99 = Asciz	java/io/Serializable;
const #100 = class	#99;	//  java/io/Serializable

{
public scala.xml.parsing.FatalError(java.lang.String);
  Code:
   Stack=2, Locals=2, Args_size=2
   0:	aload_0
   1:	aload_1
   2:	putfield	#12; //Field msg:Ljava/lang/String;
   5:	aload_0
   6:	aload_1
   7:	invokespecial	#16; //Method java/lang/RuntimeException."<init>":(Ljava/lang/String;)V
   10:	aload_0
   11:	invokestatic	#22; //Method scala/Product$class.$init$:(Lscala/Product;)V
   14:	return
  LineNumberTable: 
   line 16: 0

  LocalVariableTable: 
   Start  Length  Slot  Name   Signature
   0      15      0    this       Lscala/xml/parsing/FatalError;
   0      15      1    msg       Ljava/lang/String;


public boolean canEqual(java.lang.Object);
  Code:
   Stack=1, Locals=2, Args_size=2
   0:	aload_1
   1:	instanceof	#10; //class scala/xml/parsing/FatalError
   4:	ireturn
  LineNumberTable: 
   line 16: 0


public java.lang.Object productElement(int);
  Code:
   Stack=3, Locals=3, Args_size=2
   0:	iload_1
   1:	istore_2
   2:	iload_2
   3:	invokestatic	#45; //Method scala/runtime/BoxesRunTime.boxToInteger:(I)Ljava/lang/Integer;
   6:	iconst_0
   7:	invokestatic	#45; //Method scala/runtime/BoxesRunTime.boxToInteger:(I)Ljava/lang/Integer;
   10:	invokestatic	#48; //Method scala/runtime/BoxesRunTime.equals:(Ljava/lang/Object;Ljava/lang/Object;)Z
   13:	ifeq	21
   16:	aload_0
   17:	invokevirtual	#30; //Method msg:()Ljava/lang/String;
   20:	areturn
   21:	new	#50; //class java/lang/IndexOutOfBoundsException
   24:	dup
   25:	iload_1
   26:	invokestatic	#45; //Method scala/runtime/BoxesRunTime.boxToInteger:(I)Ljava/lang/Integer;
   29:	invokevirtual	#53; //Method java/lang/Object.toString:()Ljava/lang/String;
   32:	invokespecial	#54; //Method java/lang/IndexOutOfBoundsException."<init>":(Ljava/lang/String;)V
   35:	athrow
  LineNumberTable: 
   line 16: 0

  LocalVariableTable: 
   Start  Length  Slot  Name   Signature
   0      36      0    this       Lscala/xml/parsing/FatalError;
   2      34      2    temp4       I


public int productArity();
  Code:
   Stack=1, Locals=1, Args_size=1
   0:	iconst_1
   1:	ireturn
  LineNumberTable: 
   line 16: 0


public java.lang.String productPrefix();
  Code:
   Stack=1, Locals=1, Args_size=1
   0:	ldc	#61; //String FatalError
   2:	areturn
  LineNumberTable: 
   line 16: 0


public boolean equals(java.lang.Object);
  Code:
   Stack=2, Locals=6, Args_size=2
   0:	aload_0
   1:	aload_1
   2:	if_acmpeq	59
   5:	aload_1
   6:	astore_2
   7:	aload_2
   8:	instanceof	#10; //class scala/xml/parsing/FatalError
   11:	ifeq	55
   14:	aload_2
   15:	checkcast	#10; //class scala/xml/parsing/FatalError
   18:	astore_3
   19:	aload_3
   20:	invokevirtual	#30; //Method msg:()Ljava/lang/String;
   23:	astore	4
   25:	aload	4
   27:	astore	5
   29:	aload_0
   30:	aload	5
   32:	invokespecial	#63; //Method gd1$1:(Ljava/lang/String;)Z
   35:	ifeq	51
   38:	aload_1
   39:	checkcast	#10; //class scala/xml/parsing/FatalError
   42:	aload_0
   43:	invokeinterface	#67,  2; //InterfaceMethod scala/Product.canEqual:(Ljava/lang/Object;)Z
   48:	goto	56
   51:	iconst_0
   52:	goto	56
   55:	iconst_0
   56:	ifeq	63
   59:	iconst_1
   60:	goto	64
   63:	iconst_0
   64:	ireturn
  LineNumberTable: 
   line 16: 0
   line 21: 51
   line 16: 56

  LocalVariableTable: 
   Start  Length  Slot  Name   Signature
   0      65      0    this       Lscala/xml/parsing/FatalError;
   7      52      2    temp1       Ljava/lang/Object;
   19      36      3    temp2       Lscala/xml/parsing/FatalError;
   25      30      4    temp3       Ljava/lang/String;
   29      26      5    msg$1       Ljava/lang/String;


public int hashCode();
  Code:
   Stack=2, Locals=1, Args_size=1
   0:	getstatic	#79; //Field scala/runtime/ScalaRunTime$.MODULE$:Lscala/runtime/ScalaRunTime$;
   3:	aload_0
   4:	invokevirtual	#83; //Method scala/runtime/ScalaRunTime$._hashCode:(Lscala/Product;)I
   7:	ireturn
  LineNumberTable: 
   line 16: 0


public java.lang.String copy$default$1();
  Code:
   Stack=1, Locals=1, Args_size=1
   0:	aload_0
   1:	invokevirtual	#30; //Method msg:()Ljava/lang/String;
   4:	areturn
  LineNumberTable: 
   line 16: 0


public scala.xml.parsing.FatalError copy(java.lang.String);
  Code:
   Stack=3, Locals=2, Args_size=2
   0:	new	#10; //class scala/xml/parsing/FatalError
   3:	dup
   4:	aload_1
   5:	invokespecial	#87; //Method "<init>":(Ljava/lang/String;)V
   8:	areturn
  LineNumberTable: 
   line 16: 0

  LocalVariableTable: 
   Start  Length  Slot  Name   Signature
   0      9      0    this       Lscala/xml/parsing/FatalError;
   0      9      1    msg       Ljava/lang/String;


public java.lang.String msg();
  Code:
   Stack=1, Locals=1, Args_size=1
   0:	aload_0
   1:	getfield	#12; //Field msg:Ljava/lang/String;
   4:	areturn
  LineNumberTable: 
   line 16: 0


public scala.collection.Iterator productElements();
  Code:
   Stack=1, Locals=1, Args_size=1
   0:	aload_0
   1:	invokestatic	#92; //Method scala/Product$class.productElements:(Lscala/Product;)Lscala/collection/Iterator;
   4:	areturn
  LineNumberTable: 
   line 16: 0


public scala.collection.Iterator productIterator();
  Code:
   Stack=1, Locals=1, Args_size=1
   0:	aload_0
   1:	invokestatic	#95; //Method scala/Product$class.productIterator:(Lscala/Product;)Lscala/collection/Iterator;
   4:	areturn
  LineNumberTable: 
   line 16: 0


}

