Compiled from "XhtmlParser.scala"
public class scala.xml.parsing.XhtmlParser extends scala.xml.parsing.ConstructingHandler implements scala.xml.parsing.MarkupParser,scala.xml.parsing.ExternalSources,scala.ScalaObject
  SourceFile: "XhtmlParser.scala"
  ScalaSig: length = 0x1D3
   05 00 48 06 08 01 02 FFFFFF84 FFFFFF80 FFFFFF80 FFFFFF80 00 09 02 0B 58
   68 74 6D 6C 50 61 72 73 65 72 0A 02 03 04 01 07
   70 61 72 73 69 6E 67 0A 02 05 06 01 03 78 6D 6C
   0A 01 07 01 05 73 63 61 6C 61 03 00 13 05 00 0A
   0E 11 14 10 02 0B 0C 0D 01 02 09 02 0D 02 02 13
   43 6F 6E 73 74 72 75 63 74 69 6E 67 48 61 6E 64
   6C 65 72 10 02 0B 0F 09 02 10 02 02 0C 4D 61 72
   6B 75 70 50 61 72 73 65 72 10 02 0B 12 09 02 13
   02 02 0F 45 78 74 65 72 6E 61 6C 53 6F 75 72 63
   65 73 10 02 15 16 0D 01 06 09 02 17 06 02 0B 53
   63 61 6C 61 4F 62 6A 65 63 74 08 08 19 00 FFFFFF82 FFFFFFC2
   FFFFFF80 FFFFFF84 00 1A 01 05 69 6E 70 75 74 15 01 1B 10 02
   1C 1F 0D 01 1D 0A 02 1E 06 01 02 69 6F 09 02 20
   1D 02 06 53 6F 75 72 63 65 08 08 22 00 FFFFFF82 FFFFFF80 FFFFFFA0
   FFFFFF80 04 1B 01 06 69 6E 70 75 74 20 08 05 24 00 FFFFFF84
   00 25 01 06 3C 69 6E 69 74 3E 14 02 26 27 10 02
   0B 00 08 05 19 23 FFFFFFC0 00 1B 08 07 29 00 FFFFFFC2 FFFFFF80 FFFFFF84
   00 2A 01 0A 70 72 65 73 65 72 76 65 57 53 15 01
   2B 10 02 15 2C 09 02 2D 06 02 07 42 6F 6F 6C 65
   61 6E 08 06 2F 00 FFFFFFA0 FFFFFF80 04 2B 01 0B 70 72 65 73
   65 72 76 65 57 53 20 07 05 31 02 FFFFFF88 02 32 01 0B
   58 68 74 6D 6C 50 61 72 73 65 72 10 02 0B 33 06
   08 01 02 FFFFFF84 FFFFFF80 FFFFFF80 FFFFFF88 02 34 13 03 33 35 14 10 02
   36 3B 0D 01 37 0A 02 38 39 01 04 6C 61 6E 67 0A
   01 3A 01 04 6A 61 76 61 09 02 3C 37 02 06 4F 62
   6A 65 63 74 08 05 24 33 FFFFFF84 00 3E 14 01 32 08 05
   40 33 FFFFFF84 00 41 01 05 61 70 70 6C 79 14 02 42 46
   10 02 43 44 0D 01 04 09 02 45 04 02 07 4E 6F 64
   65 53 65 71 08 05 47 3F FFFFFFC0 00 1B 01 06 73 6F 75
   72 63 65 
  minor version: 0
  major version: 49
  Constant pool:
Asciz	SourceFile;
Asciz	XhtmlParser.scala;
Asciz	apply;
Asciz	(Lscala/io/Source;)Lscala/xml/NodeSeq;;
Asciz	Code;
Asciz	scala/xml/parsing/XhtmlParser$;
class	scala/xml/parsing/XhtmlParser$
Asciz	MODULE$;
Asciz	Lscala/xml/parsing/XhtmlParser$;;
NameAndType	MODULE$:Lscala/xml/parsing/XhtmlParser$;
Field	scala/xml/parsing/XhtmlParser$.MODULE$:Lscala/xml/parsing/XhtmlParser$;
NameAndType	apply:(Lscala/io/Source;)Lscala/xml/NodeSeq;
Method	scala/xml/parsing/XhtmlParser$.apply:(Lscala/io/Source;)Lscala/xml/NodeSeq;
Asciz	eof;
Asciz	Z;
Asciz	doc;
Asciz	Lscala/xml/Document;;
Asciz	dtd;
Asciz	Lscala/xml/dtd/DTD;;
Asciz	cbuf;
Asciz	Lscala/collection/mutable/StringBuilder;;
Asciz	ch;
Asciz	C;
Asciz	tmppos;
Asciz	I;
Asciz	extIndex;
Asciz	pos;
Asciz	inpStack;
Asciz	Lscala/collection/immutable/List;;
Asciz	scala$xml$parsing$MarkupParser$$handle;
Asciz	Lscala/xml/parsing/MarkupHandler;;
Asciz	curInput;
Asciz	Lscala/io/Source;;
Asciz	preserveWS;
Asciz	input;
Asciz	<init>;
Asciz	(Lscala/io/Source;)V;
Asciz	LineNumberTable;
Asciz	scala/xml/parsing/XhtmlParser;
class	scala/xml/parsing/XhtmlParser
NameAndType	input:Lscala/io/Source;
Field	scala/xml/parsing/XhtmlParser.input:Lscala/io/Source;
Asciz	scala/xml/parsing/ConstructingHandler;
class	scala/xml/parsing/ConstructingHandler
Asciz	()V;
NameAndType	"<init>":()V
Method	scala/xml/parsing/ConstructingHandler."<init>":()V
Asciz	scala/xml/parsing/TokenTests$class;
class	scala/xml/parsing/TokenTests$class
Asciz	$init$;
Asciz	(Lscala/xml/parsing/TokenTests;)V;
NameAndType	$init$:(Lscala/xml/parsing/TokenTests;)V
Method	scala/xml/parsing/TokenTests$class.$init$:(Lscala/xml/parsing/TokenTests;)V
Asciz	scala/xml/parsing/MarkupParser$class;
class	scala/xml/parsing/MarkupParser$class
Asciz	(Lscala/xml/parsing/MarkupParser;)V;
NameAndType	$init$:(Lscala/xml/parsing/MarkupParser;)V
Method	scala/xml/parsing/MarkupParser$class.$init$:(Lscala/xml/parsing/MarkupParser;)V
Asciz	scala/xml/parsing/ExternalSources$class;
class	scala/xml/parsing/ExternalSources$class
Asciz	(Lscala/xml/parsing/ExternalSources;)V;
NameAndType	$init$:(Lscala/xml/parsing/ExternalSources;)V
Method	scala/xml/parsing/ExternalSources$class.$init$:(Lscala/xml/parsing/ExternalSources;)V
NameAndType	preserveWS:Z
Field	scala/xml/parsing/XhtmlParser.preserveWS:Z
Asciz	ent;
Asciz	()Lscala/collection/mutable/Map;;
NameAndType	ent:()Lscala/collection/mutable/Map;
Method	scala/xml/parsing/XhtmlParser.ent:()Lscala/collection/mutable/Map;
Asciz	scala/xml/parsing/XhtmlEntities$;
class	scala/xml/parsing/XhtmlEntities$
Asciz	Lscala/xml/parsing/XhtmlEntities$;;
NameAndType	MODULE$:Lscala/xml/parsing/XhtmlEntities$;
Field	scala/xml/parsing/XhtmlEntities$.MODULE$:Lscala/xml/parsing/XhtmlEntities$;
Asciz	()Lscala/collection/immutable/List;;
NameAndType	apply:()Lscala/collection/immutable/List;
Method	scala/xml/parsing/XhtmlEntities$.apply:()Lscala/collection/immutable/List;
Asciz	scala/collection/generic/Growable;
class	scala/collection/generic/Growable
Asciz	$plus$plus$eq;
Asciz	(Lscala/collection/Traversable;)Lscala/collection/generic/Growable;;
NameAndType	$plus$plus$eq:(Lscala/collection/Traversable;)Lscala/collection/generic/Growable;
InterfaceMethod	scala/collection/generic/Growable.$plus$plus$eq:(Lscala/collection/Traversable;)Lscala/collection/generic/Growable;
Asciz	this;
Asciz	Lscala/xml/parsing/XhtmlParser;;
Asciz	LocalVariableTable;
Asciz	()Z;
Asciz	()Lscala/io/Source;;
Asciz	checkPubID;
Asciz	(Ljava/lang/String;)Z;
Asciz	(Lscala/xml/parsing/TokenTests;Ljava/lang/String;)Z;
NameAndType	checkPubID:(Lscala/xml/parsing/TokenTests;Ljava/lang/String;)Z
Method	scala/xml/parsing/TokenTests$class.checkPubID:(Lscala/xml/parsing/TokenTests;Ljava/lang/String;)Z
Asciz	s;
Asciz	Ljava/lang/String;;
Asciz	checkSysID;
NameAndType	checkSysID:(Lscala/xml/parsing/TokenTests;Ljava/lang/String;)Z
Method	scala/xml/parsing/TokenTests$class.checkSysID:(Lscala/xml/parsing/TokenTests;Ljava/lang/String;)Z
Asciz	isValidIANAEncoding;
Asciz	(Lscala/collection/Seq;)Z;
Asciz	(Lscala/xml/parsing/TokenTests;Lscala/collection/Seq;)Z;
NameAndType	isValidIANAEncoding:(Lscala/xml/parsing/TokenTests;Lscala/collection/Seq;)Z
Method	scala/xml/parsing/TokenTests$class.isValidIANAEncoding:(Lscala/xml/parsing/TokenTests;Lscala/collection/Seq;)Z
Asciz	ianaEncoding;
Asciz	Lscala/collection/Seq;;
Asciz	isPubIDChar;
Asciz	(C)Z;
Asciz	(Lscala/xml/parsing/TokenTests;C)Z;
NameAndType	isPubIDChar:(Lscala/xml/parsing/TokenTests;C)Z
Method	scala/xml/parsing/TokenTests$class.isPubIDChar:(Lscala/xml/parsing/TokenTests;C)Z
Asciz	isName;
NameAndType	isName:(Lscala/xml/parsing/TokenTests;Ljava/lang/String;)Z
Method	scala/xml/parsing/TokenTests$class.isName:(Lscala/xml/parsing/TokenTests;Ljava/lang/String;)Z
Asciz	isNameStart;
NameAndType	isNameStart:(Lscala/xml/parsing/TokenTests;C)Z
Method	scala/xml/parsing/TokenTests$class.isNameStart:(Lscala/xml/parsing/TokenTests;C)Z
Asciz	isNameChar;
NameAndType	isNameChar:(Lscala/xml/parsing/TokenTests;C)Z
Method	scala/xml/parsing/TokenTests$class.isNameChar:(Lscala/xml/parsing/TokenTests;C)Z
Asciz	isAlphaDigit;
NameAndType	isAlphaDigit:(Lscala/xml/parsing/TokenTests;C)Z
Method	scala/xml/parsing/TokenTests$class.isAlphaDigit:(Lscala/xml/parsing/TokenTests;C)Z
Asciz	c;
Asciz	isAlpha;
NameAndType	isAlpha:(Lscala/xml/parsing/TokenTests;C)Z
Method	scala/xml/parsing/TokenTests$class.isAlpha:(Lscala/xml/parsing/TokenTests;C)Z
Asciz	isSpace;
NameAndType	isSpace:(Lscala/xml/parsing/TokenTests;Lscala/collection/Seq;)Z
Method	scala/xml/parsing/TokenTests$class.isSpace:(Lscala/xml/parsing/TokenTests;Lscala/collection/Seq;)Z
Asciz	cs;
NameAndType	isSpace:(Lscala/xml/parsing/TokenTests;C)Z
Method	scala/xml/parsing/TokenTests$class.isSpace:(Lscala/xml/parsing/TokenTests;C)Z
Asciz	normalizeAttributeValue;
Asciz	(Ljava/lang/String;)Ljava/lang/String;;
Asciz	(Lscala/xml/parsing/MarkupParser;Ljava/lang/String;)Ljava/lang/String;;
NameAndType	normalizeAttributeValue:(Lscala/xml/parsing/MarkupParser;Ljava/lang/String;)Ljava/lang/String;
Method	scala/xml/parsing/MarkupParser$class.normalizeAttributeValue:(Lscala/xml/parsing/MarkupParser;Ljava/lang/String;)Ljava/lang/String;
Asciz	attval;
Asciz	pop;
NameAndType	pop:(Lscala/xml/parsing/MarkupParser;)V
Method	scala/xml/parsing/MarkupParser$class.pop:(Lscala/xml/parsing/MarkupParser;)V
Asciz	pushExternal;
Asciz	(Ljava/lang/String;)V;
Asciz	(Lscala/xml/parsing/MarkupParser;Ljava/lang/String;)V;
NameAndType	pushExternal:(Lscala/xml/parsing/MarkupParser;Ljava/lang/String;)V
Method	scala/xml/parsing/MarkupParser$class.pushExternal:(Lscala/xml/parsing/MarkupParser;Ljava/lang/String;)V
Asciz	systemId;
Asciz	push;
NameAndType	push:(Lscala/xml/parsing/MarkupParser;Ljava/lang/String;)V
Method	scala/xml/parsing/MarkupParser$class.push:(Lscala/xml/parsing/MarkupParser;Ljava/lang/String;)V
Asciz	entityName;
Asciz	reportValidationError;
Asciz	(ILjava/lang/String;)V;
Asciz	(Lscala/xml/parsing/MarkupParser;ILjava/lang/String;)V;
NameAndType	reportValidationError:(Lscala/xml/parsing/MarkupParser;ILjava/lang/String;)V
Method	scala/xml/parsing/MarkupParser$class.reportValidationError:(Lscala/xml/parsing/MarkupParser;ILjava/lang/String;)V
Asciz	str;
Asciz	reportSyntaxError;
NameAndType	reportSyntaxError:(Lscala/xml/parsing/MarkupParser;Ljava/lang/String;)V
Method	scala/xml/parsing/MarkupParser$class.reportSyntaxError:(Lscala/xml/parsing/MarkupParser;Ljava/lang/String;)V
NameAndType	reportSyntaxError:(Lscala/xml/parsing/MarkupParser;ILjava/lang/String;)V
Method	scala/xml/parsing/MarkupParser$class.reportSyntaxError:(Lscala/xml/parsing/MarkupParser;ILjava/lang/String;)V
Asciz	notationDecl;
NameAndType	notationDecl:(Lscala/xml/parsing/MarkupParser;)V
Method	scala/xml/parsing/MarkupParser$class.notationDecl:(Lscala/xml/parsing/MarkupParser;)V
Asciz	entityDecl;
NameAndType	entityDecl:(Lscala/xml/parsing/MarkupParser;)V
Method	scala/xml/parsing/MarkupParser$class.entityDecl:(Lscala/xml/parsing/MarkupParser;)V
Asciz	attrDecl;
NameAndType	attrDecl:(Lscala/xml/parsing/MarkupParser;)V
Method	scala/xml/parsing/MarkupParser$class.attrDecl:(Lscala/xml/parsing/MarkupParser;)V
Asciz	elementDecl;
NameAndType	elementDecl:(Lscala/xml/parsing/MarkupParser;)V
Method	scala/xml/parsing/MarkupParser$class.elementDecl:(Lscala/xml/parsing/MarkupParser;)V
Asciz	intSubset;
NameAndType	intSubset:(Lscala/xml/parsing/MarkupParser;)V
Method	scala/xml/parsing/MarkupParser$class.intSubset:(Lscala/xml/parsing/MarkupParser;)V
Asciz	markupDecl;
NameAndType	markupDecl:(Lscala/xml/parsing/MarkupParser;)V
Method	scala/xml/parsing/MarkupParser$class.markupDecl:(Lscala/xml/parsing/MarkupParser;)V
Asciz	markupDecl1;
Asciz	()Ljava/lang/Object;;
Asciz	(Lscala/xml/parsing/MarkupParser;)Ljava/lang/Object;;
NameAndType	markupDecl1:(Lscala/xml/parsing/MarkupParser;)Ljava/lang/Object;
Method	scala/xml/parsing/MarkupParser$class.markupDecl1:(Lscala/xml/parsing/MarkupParser;)Ljava/lang/Object;
Asciz	extSubset;
NameAndType	extSubset:(Lscala/xml/parsing/MarkupParser;)V
Method	scala/xml/parsing/MarkupParser$class.extSubset:(Lscala/xml/parsing/MarkupParser;)V
Asciz	pubidLiteral;
Asciz	()Ljava/lang/String;;
Asciz	(Lscala/xml/parsing/MarkupParser;)Ljava/lang/String;;
NameAndType	pubidLiteral:(Lscala/xml/parsing/MarkupParser;)Ljava/lang/String;
Method	scala/xml/parsing/MarkupParser$class.pubidLiteral:(Lscala/xml/parsing/MarkupParser;)Ljava/lang/String;
Asciz	systemLiteral;
NameAndType	systemLiteral:(Lscala/xml/parsing/MarkupParser;)Ljava/lang/String;
Method	scala/xml/parsing/MarkupParser$class.systemLiteral:(Lscala/xml/parsing/MarkupParser;)Ljava/lang/String;
Asciz	xText;
NameAndType	xText:(Lscala/xml/parsing/MarkupParser;)Ljava/lang/String;
Method	scala/xml/parsing/MarkupParser$class.xText:(Lscala/xml/parsing/MarkupParser;)Ljava/lang/String;
Asciz	xProcInstr;
Asciz	()Lscala/xml/NodeSeq;;
Asciz	(Lscala/xml/parsing/MarkupParser;)Lscala/xml/NodeSeq;;
NameAndType	xProcInstr:(Lscala/xml/parsing/MarkupParser;)Lscala/xml/NodeSeq;
Method	scala/xml/parsing/MarkupParser$class.xProcInstr:(Lscala/xml/parsing/MarkupParser;)Lscala/xml/NodeSeq;
Asciz	xSpace;
NameAndType	xSpace:(Lscala/xml/parsing/MarkupParser;)V
Method	scala/xml/parsing/MarkupParser$class.xSpace:(Lscala/xml/parsing/MarkupParser;)V
Asciz	xSpaceOpt;
NameAndType	xSpaceOpt:(Lscala/xml/parsing/MarkupParser;)V
Method	scala/xml/parsing/MarkupParser$class.xSpaceOpt:(Lscala/xml/parsing/MarkupParser;)V
Asciz	xEQ;
NameAndType	xEQ:(Lscala/xml/parsing/MarkupParser;)V
Method	scala/xml/parsing/MarkupParser$class.xEQ:(Lscala/xml/parsing/MarkupParser;)V
Asciz	xName;
NameAndType	xName:(Lscala/xml/parsing/MarkupParser;)Ljava/lang/String;
Method	scala/xml/parsing/MarkupParser$class.xName:(Lscala/xml/parsing/MarkupParser;)Ljava/lang/String;
Asciz	element1;
Asciz	(Lscala/xml/NamespaceBinding;)Lscala/xml/NodeSeq;;
Asciz	(Lscala/xml/parsing/MarkupParser;Lscala/xml/NamespaceBinding;)Lscala/xml/NodeSeq;;
NameAndType	element1:(Lscala/xml/parsing/MarkupParser;Lscala/xml/NamespaceBinding;)Lscala/xml/NodeSeq;
Method	scala/xml/parsing/MarkupParser$class.element1:(Lscala/xml/parsing/MarkupParser;Lscala/xml/NamespaceBinding;)Lscala/xml/NodeSeq;
Asciz	pscope;
Asciz	Lscala/xml/NamespaceBinding;;
Asciz	element;
NameAndType	element:(Lscala/xml/parsing/MarkupParser;Lscala/xml/NamespaceBinding;)Lscala/xml/NodeSeq;
Method	scala/xml/parsing/MarkupParser$class.element:(Lscala/xml/parsing/MarkupParser;Lscala/xml/NamespaceBinding;)Lscala/xml/NodeSeq;
Asciz	parseDTD;
NameAndType	parseDTD:(Lscala/xml/parsing/MarkupParser;)V
Method	scala/xml/parsing/MarkupParser$class.parseDTD:(Lscala/xml/parsing/MarkupParser;)V
Asciz	externalID;
Asciz	()Lscala/xml/dtd/ExternalID;;
Asciz	(Lscala/xml/parsing/MarkupParser;)Lscala/xml/dtd/ExternalID;;
NameAndType	externalID:(Lscala/xml/parsing/MarkupParser;)Lscala/xml/dtd/ExternalID;
Method	scala/xml/parsing/MarkupParser$class.externalID:(Lscala/xml/parsing/MarkupParser;)Lscala/xml/dtd/ExternalID;
Asciz	content;
NameAndType	content:(Lscala/xml/parsing/MarkupParser;Lscala/xml/NamespaceBinding;)Lscala/xml/NodeSeq;
Method	scala/xml/parsing/MarkupParser$class.content:(Lscala/xml/parsing/MarkupParser;Lscala/xml/NamespaceBinding;)Lscala/xml/NodeSeq;
Asciz	content1;
Asciz	(Lscala/xml/NamespaceBinding;Lscala/xml/NodeBuffer;)V;
Asciz	(Lscala/xml/parsing/MarkupParser;Lscala/xml/NamespaceBinding;Lscala/xml/NodeBuffer;)V;
NameAndType	content1:(Lscala/xml/parsing/MarkupParser;Lscala/xml/NamespaceBinding;Lscala/xml/NodeBuffer;)V
Method	scala/xml/parsing/MarkupParser$class.content1:(Lscala/xml/parsing/MarkupParser;Lscala/xml/NamespaceBinding;Lscala/xml/NodeBuffer;)V
Asciz	ts;
Asciz	Lscala/xml/NodeBuffer;;
Asciz	appendText;
Asciz	(ILscala/xml/NodeBuffer;Ljava/lang/String;)V;
Asciz	(Lscala/xml/parsing/MarkupParser;ILscala/xml/NodeBuffer;Ljava/lang/String;)V;
NameAndType	appendText:(Lscala/xml/parsing/MarkupParser;ILscala/xml/NodeBuffer;Ljava/lang/String;)V
Method	scala/xml/parsing/MarkupParser$class.appendText:(Lscala/xml/parsing/MarkupParser;ILscala/xml/NodeBuffer;Ljava/lang/String;)V
Asciz	txt;
Asciz	xComment;
NameAndType	xComment:(Lscala/xml/parsing/MarkupParser;)Lscala/xml/NodeSeq;
Method	scala/xml/parsing/MarkupParser$class.xComment:(Lscala/xml/parsing/MarkupParser;)Lscala/xml/NodeSeq;
Asciz	xCharRef;
Asciz	(Lscala/Function0;Lscala/Function0;)Ljava/lang/String;;
Asciz	(Lscala/xml/parsing/MarkupParser;Lscala/Function0;Lscala/Function0;)Ljava/lang/String;;
NameAndType	xCharRef:(Lscala/xml/parsing/MarkupParser;Lscala/Function0;Lscala/Function0;)Ljava/lang/String;
Method	scala/xml/parsing/MarkupParser$class.xCharRef:(Lscala/xml/parsing/MarkupParser;Lscala/Function0;Lscala/Function0;)Ljava/lang/String;
Asciz	Lscala/Function0;;
Asciz	nextch;
Asciz	xCharData;
NameAndType	xCharData:(Lscala/xml/parsing/MarkupParser;)Lscala/xml/NodeSeq;
Method	scala/xml/parsing/MarkupParser$class.xCharData:(Lscala/xml/parsing/MarkupParser;)Lscala/xml/NodeSeq;
Asciz	xEndTag;
NameAndType	xEndTag:(Lscala/xml/parsing/MarkupParser;Ljava/lang/String;)V
Method	scala/xml/parsing/MarkupParser$class.xEndTag:(Lscala/xml/parsing/MarkupParser;Ljava/lang/String;)V
Asciz	n;
Asciz	xTag;
Asciz	(Lscala/xml/NamespaceBinding;)Lscala/Tuple3;;
Asciz	(Lscala/xml/parsing/MarkupParser;Lscala/xml/NamespaceBinding;)Lscala/Tuple3;;
NameAndType	xTag:(Lscala/xml/parsing/MarkupParser;Lscala/xml/NamespaceBinding;)Lscala/Tuple3;
Method	scala/xml/parsing/MarkupParser$class.xTag:(Lscala/xml/parsing/MarkupParser;Lscala/xml/NamespaceBinding;)Lscala/Tuple3;
Asciz	xEntityValue;
NameAndType	xEntityValue:(Lscala/xml/parsing/MarkupParser;)Ljava/lang/String;
Method	scala/xml/parsing/MarkupParser$class.xEntityValue:(Lscala/xml/parsing/MarkupParser;)Ljava/lang/String;
Asciz	xAttributeValue;
NameAndType	xAttributeValue:(Lscala/xml/parsing/MarkupParser;)Ljava/lang/String;
Method	scala/xml/parsing/MarkupParser$class.xAttributeValue:(Lscala/xml/parsing/MarkupParser;)Ljava/lang/String;
Asciz	xAttributes;
Asciz	(Lscala/xml/NamespaceBinding;)Lscala/Tuple2;;
Asciz	(Lscala/xml/parsing/MarkupParser;Lscala/xml/NamespaceBinding;)Lscala/Tuple2;;
NameAndType	xAttributes:(Lscala/xml/parsing/MarkupParser;Lscala/xml/NamespaceBinding;)Lscala/Tuple2;
Method	scala/xml/parsing/MarkupParser$class.xAttributes:(Lscala/xml/parsing/MarkupParser;Lscala/xml/NamespaceBinding;)Lscala/Tuple2;
Asciz	xToken;
Asciz	(Lscala/collection/Seq;)V;
Asciz	(Lscala/xml/parsing/MarkupParser;Lscala/collection/Seq;)V;
NameAndType	xToken:(Lscala/xml/parsing/MarkupParser;Lscala/collection/Seq;)V
Method	scala/xml/parsing/MarkupParser$class.xToken:(Lscala/xml/parsing/MarkupParser;Lscala/collection/Seq;)V
Asciz	that;
Asciz	(C)V;
Asciz	(Lscala/xml/parsing/MarkupParser;C)V;
NameAndType	xToken:(Lscala/xml/parsing/MarkupParser;C)V
Method	scala/xml/parsing/MarkupParser$class.xToken:(Lscala/xml/parsing/MarkupParser;C)V
NameAndType	nextch:(Lscala/xml/parsing/MarkupParser;)V
Method	scala/xml/parsing/MarkupParser$class.nextch:(Lscala/xml/parsing/MarkupParser;)V
Asciz	initialize;
Asciz	()Lscala/xml/parsing/MarkupParser;;
Asciz	(Lscala/xml/parsing/MarkupParser;)Lscala/xml/parsing/MarkupParser;;
NameAndType	initialize:(Lscala/xml/parsing/MarkupParser;)Lscala/xml/parsing/MarkupParser;
Method	scala/xml/parsing/MarkupParser$class.initialize:(Lscala/xml/parsing/MarkupParser;)Lscala/xml/parsing/MarkupParser;
Asciz	putChar;
Asciz	(C)Lscala/collection/mutable/StringBuilder;;
Asciz	(Lscala/xml/parsing/MarkupParser;C)Lscala/collection/mutable/StringBuilder;;
NameAndType	putChar:(Lscala/xml/parsing/MarkupParser;C)Lscala/collection/mutable/StringBuilder;
Method	scala/xml/parsing/MarkupParser$class.putChar:(Lscala/xml/parsing/MarkupParser;C)Lscala/collection/mutable/StringBuilder;
Asciz	document;
Asciz	()Lscala/xml/Document;;
Asciz	(Lscala/xml/parsing/MarkupParser;)Lscala/xml/Document;;
NameAndType	document:(Lscala/xml/parsing/MarkupParser;)Lscala/xml/Document;
Method	scala/xml/parsing/MarkupParser$class.document:(Lscala/xml/parsing/MarkupParser;)Lscala/xml/Document;
Asciz	textDecl;
Asciz	()Lscala/Tuple2;;
Asciz	(Lscala/xml/parsing/MarkupParser;)Lscala/Tuple2;;
NameAndType	textDecl:(Lscala/xml/parsing/MarkupParser;)Lscala/Tuple2;
Method	scala/xml/parsing/MarkupParser$class.textDecl:(Lscala/xml/parsing/MarkupParser;)Lscala/Tuple2;
Asciz	prolog;
Asciz	()Lscala/Tuple3;;
Asciz	(Lscala/xml/parsing/MarkupParser;)Lscala/Tuple3;;
NameAndType	prolog:(Lscala/xml/parsing/MarkupParser;)Lscala/Tuple3;
Method	scala/xml/parsing/MarkupParser$class.prolog:(Lscala/xml/parsing/MarkupParser;)Lscala/Tuple3;
Asciz	xmlProcInstr;
Asciz	()Lscala/xml/MetaData;;
Asciz	(Lscala/xml/parsing/MarkupParser;)Lscala/xml/MetaData;;
NameAndType	xmlProcInstr:(Lscala/xml/parsing/MarkupParser;)Lscala/xml/MetaData;
Method	scala/xml/parsing/MarkupParser$class.xmlProcInstr:(Lscala/xml/parsing/MarkupParser;)Lscala/xml/MetaData;
Asciz	scala$xml$parsing$MarkupParser$_setter_$cbuf_$eq;
Asciz	(Lscala/collection/mutable/StringBuilder;)V;
NameAndType	cbuf:Lscala/collection/mutable/StringBuilder;
Field	scala/xml/parsing/XhtmlParser.cbuf:Lscala/collection/mutable/StringBuilder;
Asciz	scala$xml$parsing$MarkupParser$_setter_$scala$xml$parsing$MarkupParser$$handle_$eq;
Asciz	(Lscala/xml/parsing/MarkupHandler;)V;
NameAndType	scala$xml$parsing$MarkupParser$$handle:Lscala/xml/parsing/MarkupHandler;
Field	scala/xml/parsing/XhtmlParser.scala$xml$parsing$MarkupParser$$handle:Lscala/xml/parsing/MarkupHandler;
Asciz	eof_$eq;
Asciz	(Z)V;
NameAndType	eof:Z
Field	scala/xml/parsing/XhtmlParser.eof:Z
Asciz	doc_$eq;
Asciz	(Lscala/xml/Document;)V;
NameAndType	doc:Lscala/xml/Document;
Field	scala/xml/parsing/XhtmlParser.doc:Lscala/xml/Document;
Asciz	dtd_$eq;
Asciz	(Lscala/xml/dtd/DTD;)V;
NameAndType	dtd:Lscala/xml/dtd/DTD;
Field	scala/xml/parsing/XhtmlParser.dtd:Lscala/xml/dtd/DTD;
Asciz	()Lscala/xml/dtd/DTD;;
Asciz	()Lscala/collection/mutable/StringBuilder;;
Asciz	ch_$eq;
NameAndType	ch:C
Field	scala/xml/parsing/XhtmlParser.ch:C
Asciz	()C;
Asciz	tmppos_$eq;
Asciz	(I)V;
NameAndType	tmppos:I
Field	scala/xml/parsing/XhtmlParser.tmppos:I
Asciz	()I;
Asciz	extIndex_$eq;
NameAndType	extIndex:I
Field	scala/xml/parsing/XhtmlParser.extIndex:I
Asciz	pos_$eq;
NameAndType	pos:I
Field	scala/xml/parsing/XhtmlParser.pos:I
Asciz	inpStack_$eq;
Asciz	(Lscala/collection/immutable/List;)V;
NameAndType	inpStack:Lscala/collection/immutable/List;
Field	scala/xml/parsing/XhtmlParser.inpStack:Lscala/collection/immutable/List;
Asciz	()Lscala/xml/parsing/MarkupHandler;;
Asciz	curInput_$eq;
NameAndType	curInput:Lscala/io/Source;
Field	scala/xml/parsing/XhtmlParser.curInput:Lscala/io/Source;
Asciz	externalSource;
Asciz	(Ljava/lang/String;)Lscala/io/Source;;
Asciz	(Lscala/xml/parsing/ExternalSources;Ljava/lang/String;)Lscala/io/Source;;
NameAndType	externalSource:(Lscala/xml/parsing/ExternalSources;Ljava/lang/String;)Lscala/io/Source;
Method	scala/xml/parsing/ExternalSources$class.externalSource:(Lscala/xml/parsing/ExternalSources;Ljava/lang/String;)Lscala/io/Source;
Asciz	ScalaSig;
Asciz	scala/xml/parsing/MarkupParser;
class	scala/xml/parsing/MarkupParser
Asciz	scala/xml/parsing/ExternalSources;
class	scala/xml/parsing/ExternalSources
Asciz	scala/ScalaObject;
class	scala/ScalaObject

{
private boolean eof;
  Signature: Z

private scala.xml.Document doc;
  Signature: Lscala/xml/Document;

private scala.xml.dtd.DTD dtd;
  Signature: Lscala/xml/dtd/DTD;

private final scala.collection.mutable.StringBuilder cbuf;
  Signature: Lscala/collection/mutable/StringBuilder;

private char ch;
  Signature: C

private int tmppos;
  Signature: I

private int extIndex;
  Signature: I

private int pos;
  Signature: I

private scala.collection.immutable.List inpStack;
  Signature: Lscala/collection/immutable/List;

private final scala.xml.parsing.MarkupHandler scala$xml$parsing$MarkupParser$$handle;
  Signature: Lscala/xml/parsing/MarkupHandler;

private scala.io.Source curInput;
  Signature: Lscala/io/Source;

private final boolean preserveWS;
  Signature: Z

private final scala.io.Source input;
  Signature: Lscala/io/Source;

public static final scala.xml.NodeSeq apply(scala.io.Source);
  Signature: (Lscala/io/Source;)Lscala/xml/NodeSeq;
  Code:
   Stack=2, Locals=1, Args_size=1
	getstatic	Field scala/xml/parsing/XhtmlParser$.MODULE$:Lscala/xml/parsing/XhtmlParser$;
	aload_0
	invokevirtual	Method scala/xml/parsing/XhtmlParser$.apply:(Lscala/io/Source;)Lscala/xml/NodeSeq;
	areturn
  Labels:

public scala.xml.parsing.XhtmlParser(scala.io.Source);
  Signature: (Lscala/io/Source;)V
  Code:
   Stack=2, Locals=2, Args_size=2
	aload_0
	aload_1
	putfield	Field input:Lscala/io/Source;
	aload_0
	invokespecial	Method scala/xml/parsing/ConstructingHandler."<init>":()V
	aload_0
	invokestatic	Method scala/xml/parsing/TokenTests$class.$init$:(Lscala/xml/parsing/TokenTests;)V
	aload_0
	invokestatic	Method scala/xml/parsing/MarkupParser$class.$init$:(Lscala/xml/parsing/MarkupParser;)V
	aload_0
	invokestatic	Method scala/xml/parsing/ExternalSources$class.$init$:(Lscala/xml/parsing/ExternalSources;)V
	aload_0
	iconst_1
	putfield	Field preserveWS:Z
	aload_0
	invokevirtual	Method ent:()Lscala/collection/mutable/Map;
	getstatic	Field scala/xml/parsing/XhtmlEntities$.MODULE$:Lscala/xml/parsing/XhtmlEntities$;
	invokevirtual	Method scala/xml/parsing/XhtmlEntities$.apply:()Lscala/collection/immutable/List;
	invokeinterface	InterfaceMethod scala/collection/generic/Growable.$plus$plus$eq:(Lscala/collection/Traversable;)Lscala/collection/generic/Growable;
	pop
	return
  Labels:
  LocalVariableTable: 
   Start  Length  Slot  Name   Signature
   0      43      0    this       Lscala/xml/parsing/XhtmlParser;
   0      43      1    input       Lscala/io/Source;


public boolean preserveWS();
  Signature: ()Z
  Code:
   Stack=1, Locals=1, Args_size=1
	aload_0
	getfield	Field preserveWS:Z
	ireturn
  Labels:

public scala.io.Source input();
  Signature: ()Lscala/io/Source;
  Code:
   Stack=1, Locals=1, Args_size=1
	aload_0
	getfield	Field input:Lscala/io/Source;
	areturn
  Labels:

public boolean checkPubID(java.lang.String);
  Signature: (Ljava/lang/String;)Z
  Code:
   Stack=2, Locals=2, Args_size=2
	aload_0
	aload_1
	invokestatic	Method scala/xml/parsing/TokenTests$class.checkPubID:(Lscala/xml/parsing/TokenTests;Ljava/lang/String;)Z
	ireturn
  Labels:
  LocalVariableTable: 
   Start  Length  Slot  Name   Signature
   0      6      0    this       Lscala/xml/parsing/XhtmlParser;
   0      6      1    s       Ljava/lang/String;


public boolean checkSysID(java.lang.String);
  Signature: (Ljava/lang/String;)Z
  Code:
   Stack=2, Locals=2, Args_size=2
	aload_0
	aload_1
	invokestatic	Method scala/xml/parsing/TokenTests$class.checkSysID:(Lscala/xml/parsing/TokenTests;Ljava/lang/String;)Z
	ireturn
  Labels:
  LocalVariableTable: 
   Start  Length  Slot  Name   Signature
   0      6      0    this       Lscala/xml/parsing/XhtmlParser;
   0      6      1    s       Ljava/lang/String;


public boolean isValidIANAEncoding(scala.collection.Seq);
  Signature: (Lscala/collection/Seq;)Z
  Code:
   Stack=2, Locals=2, Args_size=2
	aload_0
	aload_1
	invokestatic	Method scala/xml/parsing/TokenTests$class.isValidIANAEncoding:(Lscala/xml/parsing/TokenTests;Lscala/collection/Seq;)Z
	ireturn
  Labels:
  LocalVariableTable: 
   Start  Length  Slot  Name   Signature
   0      6      0    this       Lscala/xml/parsing/XhtmlParser;
   0      6      1    ianaEncoding       Lscala/collection/Seq;


public boolean isPubIDChar(char);
  Signature: (C)Z
  Code:
   Stack=2, Locals=2, Args_size=2
	aload_0
	iload_1
	invokestatic	Method scala/xml/parsing/TokenTests$class.isPubIDChar:(Lscala/xml/parsing/TokenTests;C)Z
	ireturn
  Labels:
  LocalVariableTable: 
   Start  Length  Slot  Name   Signature
   0      6      0    this       Lscala/xml/parsing/XhtmlParser;
   0      6      1    ch       C


public boolean isName(java.lang.String);
  Signature: (Ljava/lang/String;)Z
  Code:
   Stack=2, Locals=2, Args_size=2
	aload_0
	aload_1
	invokestatic	Method scala/xml/parsing/TokenTests$class.isName:(Lscala/xml/parsing/TokenTests;Ljava/lang/String;)Z
	ireturn
  Labels:
  LocalVariableTable: 
   Start  Length  Slot  Name   Signature
   0      6      0    this       Lscala/xml/parsing/XhtmlParser;
   0      6      1    s       Ljava/lang/String;


public boolean isNameStart(char);
  Signature: (C)Z
  Code:
   Stack=2, Locals=2, Args_size=2
	aload_0
	iload_1
	invokestatic	Method scala/xml/parsing/TokenTests$class.isNameStart:(Lscala/xml/parsing/TokenTests;C)Z
	ireturn
  Labels:
  LocalVariableTable: 
   Start  Length  Slot  Name   Signature
   0      6      0    this       Lscala/xml/parsing/XhtmlParser;
   0      6      1    ch       C


public boolean isNameChar(char);
  Signature: (C)Z
  Code:
   Stack=2, Locals=2, Args_size=2
	aload_0
	iload_1
	invokestatic	Method scala/xml/parsing/TokenTests$class.isNameChar:(Lscala/xml/parsing/TokenTests;C)Z
	ireturn
  Labels:
  LocalVariableTable: 
   Start  Length  Slot  Name   Signature
   0      6      0    this       Lscala/xml/parsing/XhtmlParser;
   0      6      1    ch       C


public boolean isAlphaDigit(char);
  Signature: (C)Z
  Code:
   Stack=2, Locals=2, Args_size=2
	aload_0
	iload_1
	invokestatic	Method scala/xml/parsing/TokenTests$class.isAlphaDigit:(Lscala/xml/parsing/TokenTests;C)Z
	ireturn
  Labels:
  LocalVariableTable: 
   Start  Length  Slot  Name   Signature
   0      6      0    this       Lscala/xml/parsing/XhtmlParser;
   0      6      1    c       C


public boolean isAlpha(char);
  Signature: (C)Z
  Code:
   Stack=2, Locals=2, Args_size=2
	aload_0
	iload_1
	invokestatic	Method scala/xml/parsing/TokenTests$class.isAlpha:(Lscala/xml/parsing/TokenTests;C)Z
	ireturn
  Labels:
  LocalVariableTable: 
   Start  Length  Slot  Name   Signature
   0      6      0    this       Lscala/xml/parsing/XhtmlParser;
   0      6      1    c       C


public final boolean isSpace(scala.collection.Seq);
  Signature: (Lscala/collection/Seq;)Z
  Code:
   Stack=2, Locals=2, Args_size=2
	aload_0
	aload_1
	invokestatic	Method scala/xml/parsing/TokenTests$class.isSpace:(Lscala/xml/parsing/TokenTests;Lscala/collection/Seq;)Z
	ireturn
  Labels:
  LocalVariableTable: 
   Start  Length  Slot  Name   Signature
   0      6      0    this       Lscala/xml/parsing/XhtmlParser;
   0      6      1    cs       Lscala/collection/Seq;


public final boolean isSpace(char);
  Signature: (C)Z
  Code:
   Stack=2, Locals=2, Args_size=2
	aload_0
	iload_1
	invokestatic	Method scala/xml/parsing/TokenTests$class.isSpace:(Lscala/xml/parsing/TokenTests;C)Z
	ireturn
  Labels:
  LocalVariableTable: 
   Start  Length  Slot  Name   Signature
   0      6      0    this       Lscala/xml/parsing/XhtmlParser;
   0      6      1    ch       C


public java.lang.String normalizeAttributeValue(java.lang.String);
  Signature: (Ljava/lang/String;)Ljava/lang/String;
  Code:
   Stack=2, Locals=2, Args_size=2
	aload_0
	aload_1
	invokestatic	Method scala/xml/parsing/MarkupParser$class.normalizeAttributeValue:(Lscala/xml/parsing/MarkupParser;Ljava/lang/String;)Ljava/lang/String;
	areturn
  Labels:
  LocalVariableTable: 
   Start  Length  Slot  Name   Signature
   0      6      0    this       Lscala/xml/parsing/XhtmlParser;
   0      6      1    attval       Ljava/lang/String;


public void pop();
  Signature: ()V
  Code:
   Stack=1, Locals=1, Args_size=1
	aload_0
	invokestatic	Method scala/xml/parsing/MarkupParser$class.pop:(Lscala/xml/parsing/MarkupParser;)V
	return
  Labels:

public void pushExternal(java.lang.String);
  Signature: (Ljava/lang/String;)V
  Code:
   Stack=2, Locals=2, Args_size=2
	aload_0
	aload_1
	invokestatic	Method scala/xml/parsing/MarkupParser$class.pushExternal:(Lscala/xml/parsing/MarkupParser;Ljava/lang/String;)V
	return
  Labels:
  LocalVariableTable: 
   Start  Length  Slot  Name   Signature
   0      6      0    this       Lscala/xml/parsing/XhtmlParser;
   0      6      1    systemId       Ljava/lang/String;


public void push(java.lang.String);
  Signature: (Ljava/lang/String;)V
  Code:
   Stack=2, Locals=2, Args_size=2
	aload_0
	aload_1
	invokestatic	Method scala/xml/parsing/MarkupParser$class.push:(Lscala/xml/parsing/MarkupParser;Ljava/lang/String;)V
	return
  Labels:
  LocalVariableTable: 
   Start  Length  Slot  Name   Signature
   0      6      0    this       Lscala/xml/parsing/XhtmlParser;
   0      6      1    entityName       Ljava/lang/String;


public void reportValidationError(int, java.lang.String);
  Signature: (ILjava/lang/String;)V
  Code:
   Stack=3, Locals=3, Args_size=3
	aload_0
	iload_1
	aload_2
	invokestatic	Method scala/xml/parsing/MarkupParser$class.reportValidationError:(Lscala/xml/parsing/MarkupParser;ILjava/lang/String;)V
	return
  Labels:
  LocalVariableTable: 
   Start  Length  Slot  Name   Signature
   0      7      0    this       Lscala/xml/parsing/XhtmlParser;
   0      7      1    pos       I
   0      7      2    str       Ljava/lang/String;


public void reportSyntaxError(java.lang.String);
  Signature: (Ljava/lang/String;)V
  Code:
   Stack=2, Locals=2, Args_size=2
	aload_0
	aload_1
	invokestatic	Method scala/xml/parsing/MarkupParser$class.reportSyntaxError:(Lscala/xml/parsing/MarkupParser;Ljava/lang/String;)V
	return
  Labels:
  LocalVariableTable: 
   Start  Length  Slot  Name   Signature
   0      6      0    this       Lscala/xml/parsing/XhtmlParser;
   0      6      1    str       Ljava/lang/String;


public void reportSyntaxError(int, java.lang.String);
  Signature: (ILjava/lang/String;)V
  Code:
   Stack=3, Locals=3, Args_size=3
	aload_0
	iload_1
	aload_2
	invokestatic	Method scala/xml/parsing/MarkupParser$class.reportSyntaxError:(Lscala/xml/parsing/MarkupParser;ILjava/lang/String;)V
	return
  Labels:
  LocalVariableTable: 
   Start  Length  Slot  Name   Signature
   0      7      0    this       Lscala/xml/parsing/XhtmlParser;
   0      7      1    pos       I
   0      7      2    str       Ljava/lang/String;


public void notationDecl();
  Signature: ()V
  Code:
   Stack=1, Locals=1, Args_size=1
	aload_0
	invokestatic	Method scala/xml/parsing/MarkupParser$class.notationDecl:(Lscala/xml/parsing/MarkupParser;)V
	return
  Labels:

public void entityDecl();
  Signature: ()V
  Code:
   Stack=1, Locals=1, Args_size=1
	aload_0
	invokestatic	Method scala/xml/parsing/MarkupParser$class.entityDecl:(Lscala/xml/parsing/MarkupParser;)V
	return
  Labels:

public void attrDecl();
  Signature: ()V
  Code:
   Stack=1, Locals=1, Args_size=1
	aload_0
	invokestatic	Method scala/xml/parsing/MarkupParser$class.attrDecl:(Lscala/xml/parsing/MarkupParser;)V
	return
  Labels:

public void elementDecl();
  Signature: ()V
  Code:
   Stack=1, Locals=1, Args_size=1
	aload_0
	invokestatic	Method scala/xml/parsing/MarkupParser$class.elementDecl:(Lscala/xml/parsing/MarkupParser;)V
	return
  Labels:

public void intSubset();
  Signature: ()V
  Code:
   Stack=1, Locals=1, Args_size=1
	aload_0
	invokestatic	Method scala/xml/parsing/MarkupParser$class.intSubset:(Lscala/xml/parsing/MarkupParser;)V
	return
  Labels:

public void markupDecl();
  Signature: ()V
  Code:
   Stack=1, Locals=1, Args_size=1
	aload_0
	invokestatic	Method scala/xml/parsing/MarkupParser$class.markupDecl:(Lscala/xml/parsing/MarkupParser;)V
	return
  Labels:

public java.lang.Object markupDecl1();
  Signature: ()Ljava/lang/Object;
  Code:
   Stack=1, Locals=1, Args_size=1
	aload_0
	invokestatic	Method scala/xml/parsing/MarkupParser$class.markupDecl1:(Lscala/xml/parsing/MarkupParser;)Ljava/lang/Object;
	areturn
  Labels:

public void extSubset();
  Signature: ()V
  Code:
   Stack=1, Locals=1, Args_size=1
	aload_0
	invokestatic	Method scala/xml/parsing/MarkupParser$class.extSubset:(Lscala/xml/parsing/MarkupParser;)V
	return
  Labels:

public java.lang.String pubidLiteral();
  Signature: ()Ljava/lang/String;
  Code:
   Stack=1, Locals=1, Args_size=1
	aload_0
	invokestatic	Method scala/xml/parsing/MarkupParser$class.pubidLiteral:(Lscala/xml/parsing/MarkupParser;)Ljava/lang/String;
	areturn
  Labels:

public java.lang.String systemLiteral();
  Signature: ()Ljava/lang/String;
  Code:
   Stack=1, Locals=1, Args_size=1
	aload_0
	invokestatic	Method scala/xml/parsing/MarkupParser$class.systemLiteral:(Lscala/xml/parsing/MarkupParser;)Ljava/lang/String;
	areturn
  Labels:

public java.lang.String xText();
  Signature: ()Ljava/lang/String;
  Code:
   Stack=1, Locals=1, Args_size=1
	aload_0
	invokestatic	Method scala/xml/parsing/MarkupParser$class.xText:(Lscala/xml/parsing/MarkupParser;)Ljava/lang/String;
	areturn
  Labels:

public scala.xml.NodeSeq xProcInstr();
  Signature: ()Lscala/xml/NodeSeq;
  Code:
   Stack=1, Locals=1, Args_size=1
	aload_0
	invokestatic	Method scala/xml/parsing/MarkupParser$class.xProcInstr:(Lscala/xml/parsing/MarkupParser;)Lscala/xml/NodeSeq;
	areturn
  Labels:

public void xSpace();
  Signature: ()V
  Code:
   Stack=1, Locals=1, Args_size=1
	aload_0
	invokestatic	Method scala/xml/parsing/MarkupParser$class.xSpace:(Lscala/xml/parsing/MarkupParser;)V
	return
  Labels:

public void xSpaceOpt();
  Signature: ()V
  Code:
   Stack=1, Locals=1, Args_size=1
	aload_0
	invokestatic	Method scala/xml/parsing/MarkupParser$class.xSpaceOpt:(Lscala/xml/parsing/MarkupParser;)V
	return
  Labels:

public void xEQ();
  Signature: ()V
  Code:
   Stack=1, Locals=1, Args_size=1
	aload_0
	invokestatic	Method scala/xml/parsing/MarkupParser$class.xEQ:(Lscala/xml/parsing/MarkupParser;)V
	return
  Labels:

public java.lang.String xName();
  Signature: ()Ljava/lang/String;
  Code:
   Stack=1, Locals=1, Args_size=1
	aload_0
	invokestatic	Method scala/xml/parsing/MarkupParser$class.xName:(Lscala/xml/parsing/MarkupParser;)Ljava/lang/String;
	areturn
  Labels:

public scala.xml.NodeSeq element1(scala.xml.NamespaceBinding);
  Signature: (Lscala/xml/NamespaceBinding;)Lscala/xml/NodeSeq;
  Code:
   Stack=2, Locals=2, Args_size=2
	aload_0
	aload_1
	invokestatic	Method scala/xml/parsing/MarkupParser$class.element1:(Lscala/xml/parsing/MarkupParser;Lscala/xml/NamespaceBinding;)Lscala/xml/NodeSeq;
	areturn
  Labels:
  LocalVariableTable: 
   Start  Length  Slot  Name   Signature
   0      6      0    this       Lscala/xml/parsing/XhtmlParser;
   0      6      1    pscope       Lscala/xml/NamespaceBinding;


public scala.xml.NodeSeq element(scala.xml.NamespaceBinding);
  Signature: (Lscala/xml/NamespaceBinding;)Lscala/xml/NodeSeq;
  Code:
   Stack=2, Locals=2, Args_size=2
	aload_0
	aload_1
	invokestatic	Method scala/xml/parsing/MarkupParser$class.element:(Lscala/xml/parsing/MarkupParser;Lscala/xml/NamespaceBinding;)Lscala/xml/NodeSeq;
	areturn
  Labels:
  LocalVariableTable: 
   Start  Length  Slot  Name   Signature
   0      6      0    this       Lscala/xml/parsing/XhtmlParser;
   0      6      1    pscope       Lscala/xml/NamespaceBinding;


public void parseDTD();
  Signature: ()V
  Code:
   Stack=1, Locals=1, Args_size=1
	aload_0
	invokestatic	Method scala/xml/parsing/MarkupParser$class.parseDTD:(Lscala/xml/parsing/MarkupParser;)V
	return
  Labels:

public scala.xml.dtd.ExternalID externalID();
  Signature: ()Lscala/xml/dtd/ExternalID;
  Code:
   Stack=1, Locals=1, Args_size=1
	aload_0
	invokestatic	Method scala/xml/parsing/MarkupParser$class.externalID:(Lscala/xml/parsing/MarkupParser;)Lscala/xml/dtd/ExternalID;
	areturn
  Labels:

public scala.xml.NodeSeq content(scala.xml.NamespaceBinding);
  Signature: (Lscala/xml/NamespaceBinding;)Lscala/xml/NodeSeq;
  Code:
   Stack=2, Locals=2, Args_size=2
	aload_0
	aload_1
	invokestatic	Method scala/xml/parsing/MarkupParser$class.content:(Lscala/xml/parsing/MarkupParser;Lscala/xml/NamespaceBinding;)Lscala/xml/NodeSeq;
	areturn
  Labels:
  LocalVariableTable: 
   Start  Length  Slot  Name   Signature
   0      6      0    this       Lscala/xml/parsing/XhtmlParser;
   0      6      1    pscope       Lscala/xml/NamespaceBinding;


public void content1(scala.xml.NamespaceBinding, scala.xml.NodeBuffer);
  Signature: (Lscala/xml/NamespaceBinding;Lscala/xml/NodeBuffer;)V
  Code:
   Stack=3, Locals=3, Args_size=3
	aload_0
	aload_1
	aload_2
	invokestatic	Method scala/xml/parsing/MarkupParser$class.content1:(Lscala/xml/parsing/MarkupParser;Lscala/xml/NamespaceBinding;Lscala/xml/NodeBuffer;)V
	return
  Labels:
  LocalVariableTable: 
   Start  Length  Slot  Name   Signature
   0      7      0    this       Lscala/xml/parsing/XhtmlParser;
   0      7      1    pscope       Lscala/xml/NamespaceBinding;
   0      7      2    ts       Lscala/xml/NodeBuffer;


public void appendText(int, scala.xml.NodeBuffer, java.lang.String);
  Signature: (ILscala/xml/NodeBuffer;Ljava/lang/String;)V
  Code:
   Stack=4, Locals=4, Args_size=4
	aload_0
	iload_1
	aload_2
	aload_3
	invokestatic	Method scala/xml/parsing/MarkupParser$class.appendText:(Lscala/xml/parsing/MarkupParser;ILscala/xml/NodeBuffer;Ljava/lang/String;)V
	return
  Labels:
  LocalVariableTable: 
   Start  Length  Slot  Name   Signature
   0      8      0    this       Lscala/xml/parsing/XhtmlParser;
   0      8      1    pos       I
   0      8      2    ts       Lscala/xml/NodeBuffer;
   0      8      3    txt       Ljava/lang/String;


public scala.xml.NodeSeq xComment();
  Signature: ()Lscala/xml/NodeSeq;
  Code:
   Stack=1, Locals=1, Args_size=1
	aload_0
	invokestatic	Method scala/xml/parsing/MarkupParser$class.xComment:(Lscala/xml/parsing/MarkupParser;)Lscala/xml/NodeSeq;
	areturn
  Labels:

public java.lang.String xCharRef(scala.Function0, scala.Function0);
  Signature: (Lscala/Function0;Lscala/Function0;)Ljava/lang/String;
  Code:
   Stack=3, Locals=3, Args_size=3
	aload_0
	aload_1
	aload_2
	invokestatic	Method scala/xml/parsing/MarkupParser$class.xCharRef:(Lscala/xml/parsing/MarkupParser;Lscala/Function0;Lscala/Function0;)Ljava/lang/String;
	areturn
  Labels:
  LocalVariableTable: 
   Start  Length  Slot  Name   Signature
   0      7      0    this       Lscala/xml/parsing/XhtmlParser;
   0      7      1    ch       Lscala/Function0;
   0      7      2    nextch       Lscala/Function0;


public scala.xml.NodeSeq xCharData();
  Signature: ()Lscala/xml/NodeSeq;
  Code:
   Stack=1, Locals=1, Args_size=1
	aload_0
	invokestatic	Method scala/xml/parsing/MarkupParser$class.xCharData:(Lscala/xml/parsing/MarkupParser;)Lscala/xml/NodeSeq;
	areturn
  Labels:

public void xEndTag(java.lang.String);
  Signature: (Ljava/lang/String;)V
  Code:
   Stack=2, Locals=2, Args_size=2
	aload_0
	aload_1
	invokestatic	Method scala/xml/parsing/MarkupParser$class.xEndTag:(Lscala/xml/parsing/MarkupParser;Ljava/lang/String;)V
	return
  Labels:
  LocalVariableTable: 
   Start  Length  Slot  Name   Signature
   0      6      0    this       Lscala/xml/parsing/XhtmlParser;
   0      6      1    n       Ljava/lang/String;


public scala.Tuple3 xTag(scala.xml.NamespaceBinding);
  Signature: (Lscala/xml/NamespaceBinding;)Lscala/Tuple3;
  Code:
   Stack=2, Locals=2, Args_size=2
	aload_0
	aload_1
	invokestatic	Method scala/xml/parsing/MarkupParser$class.xTag:(Lscala/xml/parsing/MarkupParser;Lscala/xml/NamespaceBinding;)Lscala/Tuple3;
	areturn
  Labels:
  LocalVariableTable: 
   Start  Length  Slot  Name   Signature
   0      6      0    this       Lscala/xml/parsing/XhtmlParser;
   0      6      1    pscope       Lscala/xml/NamespaceBinding;


public java.lang.String xEntityValue();
  Signature: ()Ljava/lang/String;
  Code:
   Stack=1, Locals=1, Args_size=1
	aload_0
	invokestatic	Method scala/xml/parsing/MarkupParser$class.xEntityValue:(Lscala/xml/parsing/MarkupParser;)Ljava/lang/String;
	areturn
  Labels:

public java.lang.String xAttributeValue();
  Signature: ()Ljava/lang/String;
  Code:
   Stack=1, Locals=1, Args_size=1
	aload_0
	invokestatic	Method scala/xml/parsing/MarkupParser$class.xAttributeValue:(Lscala/xml/parsing/MarkupParser;)Ljava/lang/String;
	areturn
  Labels:

public scala.Tuple2 xAttributes(scala.xml.NamespaceBinding);
  Signature: (Lscala/xml/NamespaceBinding;)Lscala/Tuple2;
  Code:
   Stack=2, Locals=2, Args_size=2
	aload_0
	aload_1
	invokestatic	Method scala/xml/parsing/MarkupParser$class.xAttributes:(Lscala/xml/parsing/MarkupParser;Lscala/xml/NamespaceBinding;)Lscala/Tuple2;
	areturn
  Labels:
  LocalVariableTable: 
   Start  Length  Slot  Name   Signature
   0      6      0    this       Lscala/xml/parsing/XhtmlParser;
   0      6      1    pscope       Lscala/xml/NamespaceBinding;


public void xToken(scala.collection.Seq);
  Signature: (Lscala/collection/Seq;)V
  Code:
   Stack=2, Locals=2, Args_size=2
	aload_0
	aload_1
	invokestatic	Method scala/xml/parsing/MarkupParser$class.xToken:(Lscala/xml/parsing/MarkupParser;Lscala/collection/Seq;)V
	return
  Labels:
  LocalVariableTable: 
   Start  Length  Slot  Name   Signature
   0      6      0    this       Lscala/xml/parsing/XhtmlParser;
   0      6      1    that       Lscala/collection/Seq;


public void xToken(char);
  Signature: (C)V
  Code:
   Stack=2, Locals=2, Args_size=2
	aload_0
	iload_1
	invokestatic	Method scala/xml/parsing/MarkupParser$class.xToken:(Lscala/xml/parsing/MarkupParser;C)V
	return
  Labels:
  LocalVariableTable: 
   Start  Length  Slot  Name   Signature
   0      6      0    this       Lscala/xml/parsing/XhtmlParser;
   0      6      1    that       C


public void nextch();
  Signature: ()V
  Code:
   Stack=1, Locals=1, Args_size=1
	aload_0
	invokestatic	Method scala/xml/parsing/MarkupParser$class.nextch:(Lscala/xml/parsing/MarkupParser;)V
	return
  Labels:

public scala.xml.parsing.MarkupParser initialize();
  Signature: ()Lscala/xml/parsing/MarkupParser;
  Code:
   Stack=1, Locals=1, Args_size=1
	aload_0
	invokestatic	Method scala/xml/parsing/MarkupParser$class.initialize:(Lscala/xml/parsing/MarkupParser;)Lscala/xml/parsing/MarkupParser;
	areturn
  Labels:

public scala.collection.mutable.StringBuilder putChar(char);
  Signature: (C)Lscala/collection/mutable/StringBuilder;
  Code:
   Stack=2, Locals=2, Args_size=2
	aload_0
	iload_1
	invokestatic	Method scala/xml/parsing/MarkupParser$class.putChar:(Lscala/xml/parsing/MarkupParser;C)Lscala/collection/mutable/StringBuilder;
	areturn
  Labels:
  LocalVariableTable: 
   Start  Length  Slot  Name   Signature
   0      6      0    this       Lscala/xml/parsing/XhtmlParser;
   0      6      1    c       C


public scala.xml.Document document();
  Signature: ()Lscala/xml/Document;
  Code:
   Stack=1, Locals=1, Args_size=1
	aload_0
	invokestatic	Method scala/xml/parsing/MarkupParser$class.document:(Lscala/xml/parsing/MarkupParser;)Lscala/xml/Document;
	areturn
  Labels:

public scala.Tuple2 textDecl();
  Signature: ()Lscala/Tuple2;
  Code:
   Stack=1, Locals=1, Args_size=1
	aload_0
	invokestatic	Method scala/xml/parsing/MarkupParser$class.textDecl:(Lscala/xml/parsing/MarkupParser;)Lscala/Tuple2;
	areturn
  Labels:

public scala.Tuple3 prolog();
  Signature: ()Lscala/Tuple3;
  Code:
   Stack=1, Locals=1, Args_size=1
	aload_0
	invokestatic	Method scala/xml/parsing/MarkupParser$class.prolog:(Lscala/xml/parsing/MarkupParser;)Lscala/Tuple3;
	areturn
  Labels:

public scala.xml.MetaData xmlProcInstr();
  Signature: ()Lscala/xml/MetaData;
  Code:
   Stack=1, Locals=1, Args_size=1
	aload_0
	invokestatic	Method scala/xml/parsing/MarkupParser$class.xmlProcInstr:(Lscala/xml/parsing/MarkupParser;)Lscala/xml/MetaData;
	areturn
  Labels:

public void scala$xml$parsing$MarkupParser$_setter_$cbuf_$eq(scala.collection.mutable.StringBuilder);
  Signature: (Lscala/collection/mutable/StringBuilder;)V
  Code:
   Stack=2, Locals=2, Args_size=2
	aload_0
	aload_1
	putfield	Field cbuf:Lscala/collection/mutable/StringBuilder;
	return
  Labels:

public void scala$xml$parsing$MarkupParser$_setter_$scala$xml$parsing$MarkupParser$$handle_$eq(scala.xml.parsing.MarkupHandler);
  Signature: (Lscala/xml/parsing/MarkupHandler;)V
  Code:
   Stack=2, Locals=2, Args_size=2
	aload_0
	aload_1
	putfield	Field scala$xml$parsing$MarkupParser$$handle:Lscala/xml/parsing/MarkupHandler;
	return
  Labels:

public void eof_$eq(boolean);
  Signature: (Z)V
  Code:
   Stack=2, Locals=2, Args_size=2
	aload_0
	iload_1
	putfield	Field eof:Z
	return
  Labels:

public boolean eof();
  Signature: ()Z
  Code:
   Stack=1, Locals=1, Args_size=1
	aload_0
	getfield	Field eof:Z
	ireturn
  Labels:

public void doc_$eq(scala.xml.Document);
  Signature: (Lscala/xml/Document;)V
  Code:
   Stack=2, Locals=2, Args_size=2
	aload_0
	aload_1
	putfield	Field doc:Lscala/xml/Document;
	return
  Labels:

public scala.xml.Document doc();
  Signature: ()Lscala/xml/Document;
  Code:
   Stack=1, Locals=1, Args_size=1
	aload_0
	getfield	Field doc:Lscala/xml/Document;
	areturn
  Labels:

public void dtd_$eq(scala.xml.dtd.DTD);
  Signature: (Lscala/xml/dtd/DTD;)V
  Code:
   Stack=2, Locals=2, Args_size=2
	aload_0
	aload_1
	putfield	Field dtd:Lscala/xml/dtd/DTD;
	return
  Labels:

public scala.xml.dtd.DTD dtd();
  Signature: ()Lscala/xml/dtd/DTD;
  Code:
   Stack=1, Locals=1, Args_size=1
	aload_0
	getfield	Field dtd:Lscala/xml/dtd/DTD;
	areturn
  Labels:

public scala.collection.mutable.StringBuilder cbuf();
  Signature: ()Lscala/collection/mutable/StringBuilder;
  Code:
   Stack=1, Locals=1, Args_size=1
	aload_0
	getfield	Field cbuf:Lscala/collection/mutable/StringBuilder;
	areturn
  Labels:

public void ch_$eq(char);
  Signature: (C)V
  Code:
   Stack=2, Locals=2, Args_size=2
	aload_0
	iload_1
	putfield	Field ch:C
	return
  Labels:

public char ch();
  Signature: ()C
  Code:
   Stack=1, Locals=1, Args_size=1
	aload_0
	getfield	Field ch:C
	ireturn
  Labels:

public void tmppos_$eq(int);
  Signature: (I)V
  Code:
   Stack=2, Locals=2, Args_size=2
	aload_0
	iload_1
	putfield	Field tmppos:I
	return
  Labels:

public int tmppos();
  Signature: ()I
  Code:
   Stack=1, Locals=1, Args_size=1
	aload_0
	getfield	Field tmppos:I
	ireturn
  Labels:

public void extIndex_$eq(int);
  Signature: (I)V
  Code:
   Stack=2, Locals=2, Args_size=2
	aload_0
	iload_1
	putfield	Field extIndex:I
	return
  Labels:

public int extIndex();
  Signature: ()I
  Code:
   Stack=1, Locals=1, Args_size=1
	aload_0
	getfield	Field extIndex:I
	ireturn
  Labels:

public void pos_$eq(int);
  Signature: (I)V
  Code:
   Stack=2, Locals=2, Args_size=2
	aload_0
	iload_1
	putfield	Field pos:I
	return
  Labels:

public int pos();
  Signature: ()I
  Code:
   Stack=1, Locals=1, Args_size=1
	aload_0
	getfield	Field pos:I
	ireturn
  Labels:

public void inpStack_$eq(scala.collection.immutable.List);
  Signature: (Lscala/collection/immutable/List;)V
  Code:
   Stack=2, Locals=2, Args_size=2
	aload_0
	aload_1
	putfield	Field inpStack:Lscala/collection/immutable/List;
	return
  Labels:

public scala.collection.immutable.List inpStack();
  Signature: ()Lscala/collection/immutable/List;
  Code:
   Stack=1, Locals=1, Args_size=1
	aload_0
	getfield	Field inpStack:Lscala/collection/immutable/List;
	areturn
  Labels:

public final scala.xml.parsing.MarkupHandler scala$xml$parsing$MarkupParser$$handle();
  Signature: ()Lscala/xml/parsing/MarkupHandler;
  Code:
   Stack=1, Locals=1, Args_size=1
	aload_0
	getfield	Field scala$xml$parsing$MarkupParser$$handle:Lscala/xml/parsing/MarkupHandler;
	areturn
  Labels:

public void curInput_$eq(scala.io.Source);
  Signature: (Lscala/io/Source;)V
  Code:
   Stack=2, Locals=2, Args_size=2
	aload_0
	aload_1
	putfield	Field curInput:Lscala/io/Source;
	return
  Labels:

public scala.io.Source curInput();
  Signature: ()Lscala/io/Source;
  Code:
   Stack=1, Locals=1, Args_size=1
	aload_0
	getfield	Field curInput:Lscala/io/Source;
	areturn
  Labels:

public scala.io.Source externalSource(java.lang.String);
  Signature: (Ljava/lang/String;)Lscala/io/Source;
  Code:
   Stack=2, Locals=2, Args_size=2
	aload_0
	aload_1
	invokestatic	Method scala/xml/parsing/ExternalSources$class.externalSource:(Lscala/xml/parsing/ExternalSources;Ljava/lang/String;)Lscala/io/Source;
	areturn
  Labels:
  LocalVariableTable: 
   Start  Length  Slot  Name   Signature
   0      6      0    this       Lscala/xml/parsing/XhtmlParser;
   0      6      1    systemId       Ljava/lang/String;


}

