Compiled from "XhtmlParser.scala"
public class scala.xml.parsing.XhtmlParser extends scala.xml.parsing.ConstructingHandler implements scala.xml.parsing.MarkupParser,scala.xml.parsing.ExternalSources,scala.ScalaObject
  SourceFile: "XhtmlParser.scala"
  ScalaSig: length = 0x1D3
   05 00 48 06 08 01 02 FFFFFF84 FFFFFF80 FFFFFF80 FFFFFF80 00 09 02 0B 58
   68 74 6D 6C 50 61 72 73 65 72 0A 02 03 04 01 07
   70 61 72 73 69 6E 67 0A 02 05 06 01 03 78 6D 6C
   0A 01 07 01 05 73 63 61 6C 61 03 00 13 05 00 0A
   0E 11 14 10 02 0B 0C 0D 01 02 09 02 0D 02 02 13
   43 6F 6E 73 74 72 75 63 74 69 6E 67 48 61 6E 64
   6C 65 72 10 02 0B 0F 09 02 10 02 02 0C 4D 61 72
   6B 75 70 50 61 72 73 65 72 10 02 0B 12 09 02 13
   02 02 0F 45 78 74 65 72 6E 61 6C 53 6F 75 72 63
   65 73 10 02 15 16 0D 01 06 09 02 17 06 02 0B 53
   63 61 6C 61 4F 62 6A 65 63 74 08 08 19 00 FFFFFF82 FFFFFFC2
   FFFFFF80 FFFFFF84 00 1A 01 05 69 6E 70 75 74 15 01 1B 10 02
   1C 1F 0D 01 1D 0A 02 1E 06 01 02 69 6F 09 02 20
   1D 02 06 53 6F 75 72 63 65 08 08 22 00 FFFFFF82 FFFFFF80 FFFFFFA0
   FFFFFF80 04 1B 01 06 69 6E 70 75 74 20 08 05 24 00 FFFFFF84
   00 25 01 06 3C 69 6E 69 74 3E 14 02 26 27 10 02
   0B 00 08 05 19 23 FFFFFFC0 00 1B 08 07 29 00 FFFFFFC2 FFFFFF80 FFFFFF84
   00 2A 01 0A 70 72 65 73 65 72 76 65 57 53 15 01
   2B 10 02 15 2C 09 02 2D 06 02 07 42 6F 6F 6C 65
   61 6E 08 06 2F 00 FFFFFFA0 FFFFFF80 04 2B 01 0B 70 72 65 73
   65 72 76 65 57 53 20 07 05 31 02 FFFFFF88 02 32 01 0B
   58 68 74 6D 6C 50 61 72 73 65 72 10 02 0B 33 06
   08 01 02 FFFFFF84 FFFFFF80 FFFFFF80 FFFFFF88 02 34 13 03 33 35 14 10 02
   36 3B 0D 01 37 0A 02 38 39 01 04 6C 61 6E 67 0A
   01 3A 01 04 6A 61 76 61 09 02 3C 37 02 06 4F 62
   6A 65 63 74 08 05 24 33 FFFFFF84 00 3E 14 01 32 08 05
   40 33 FFFFFF84 00 41 01 05 61 70 70 6C 79 14 02 42 46
   10 02 43 44 0D 01 04 09 02 45 04 02 07 4E 6F 64
   65 53 65 71 08 05 47 3F FFFFFFC0 00 1B 01 06 73 6F 75
   72 63 65 
  minor version: 0
  major version: 49
  Constant pool:
const #1 = Asciz	SourceFile;
const #2 = Asciz	XhtmlParser.scala;
const #3 = Asciz	apply;
const #4 = Asciz	(Lscala/io/Source;)Lscala/xml/NodeSeq;;
const #5 = Asciz	Code;
const #6 = Asciz	scala/xml/parsing/XhtmlParser$;
const #7 = class	#6;	//  scala/xml/parsing/XhtmlParser$
const #8 = Asciz	MODULE$;
const #9 = Asciz	Lscala/xml/parsing/XhtmlParser$;;
const #10 = NameAndType	#8:#9;//  MODULE$:Lscala/xml/parsing/XhtmlParser$;
const #11 = Field	#7.#10;	//  scala/xml/parsing/XhtmlParser$.MODULE$:Lscala/xml/parsing/XhtmlParser$;
const #12 = NameAndType	#3:#4;//  apply:(Lscala/io/Source;)Lscala/xml/NodeSeq;
const #13 = Method	#7.#12;	//  scala/xml/parsing/XhtmlParser$.apply:(Lscala/io/Source;)Lscala/xml/NodeSeq;
const #14 = Asciz	eof;
const #15 = Asciz	Z;
const #16 = Asciz	doc;
const #17 = Asciz	Lscala/xml/Document;;
const #18 = Asciz	dtd;
const #19 = Asciz	Lscala/xml/dtd/DTD;;
const #20 = Asciz	cbuf;
const #21 = Asciz	Lscala/collection/mutable/StringBuilder;;
const #22 = Asciz	ch;
const #23 = Asciz	C;
const #24 = Asciz	tmppos;
const #25 = Asciz	I;
const #26 = Asciz	extIndex;
const #27 = Asciz	pos;
const #28 = Asciz	inpStack;
const #29 = Asciz	Lscala/collection/immutable/List;;
const #30 = Asciz	scala$xml$parsing$MarkupParser$$handle;
const #31 = Asciz	Lscala/xml/parsing/MarkupHandler;;
const #32 = Asciz	curInput;
const #33 = Asciz	Lscala/io/Source;;
const #34 = Asciz	preserveWS;
const #35 = Asciz	input;
const #36 = Asciz	<init>;
const #37 = Asciz	(Lscala/io/Source;)V;
const #38 = Asciz	LineNumberTable;
const #39 = Asciz	scala/xml/parsing/XhtmlParser;
const #40 = class	#39;	//  scala/xml/parsing/XhtmlParser
const #41 = NameAndType	#35:#33;//  input:Lscala/io/Source;
const #42 = Field	#40.#41;	//  scala/xml/parsing/XhtmlParser.input:Lscala/io/Source;
const #43 = Asciz	scala/xml/parsing/ConstructingHandler;
const #44 = class	#43;	//  scala/xml/parsing/ConstructingHandler
const #45 = Asciz	()V;
const #46 = NameAndType	#36:#45;//  "<init>":()V
const #47 = Method	#44.#46;	//  scala/xml/parsing/ConstructingHandler."<init>":()V
const #48 = Asciz	scala/xml/parsing/TokenTests$class;
const #49 = class	#48;	//  scala/xml/parsing/TokenTests$class
const #50 = Asciz	$init$;
const #51 = Asciz	(Lscala/xml/parsing/TokenTests;)V;
const #52 = NameAndType	#50:#51;//  $init$:(Lscala/xml/parsing/TokenTests;)V
const #53 = Method	#49.#52;	//  scala/xml/parsing/TokenTests$class.$init$:(Lscala/xml/parsing/TokenTests;)V
const #54 = Asciz	scala/xml/parsing/MarkupParser$class;
const #55 = class	#54;	//  scala/xml/parsing/MarkupParser$class
const #56 = Asciz	(Lscala/xml/parsing/MarkupParser;)V;
const #57 = NameAndType	#50:#56;//  $init$:(Lscala/xml/parsing/MarkupParser;)V
const #58 = Method	#55.#57;	//  scala/xml/parsing/MarkupParser$class.$init$:(Lscala/xml/parsing/MarkupParser;)V
const #59 = Asciz	scala/xml/parsing/ExternalSources$class;
const #60 = class	#59;	//  scala/xml/parsing/ExternalSources$class
const #61 = Asciz	(Lscala/xml/parsing/ExternalSources;)V;
const #62 = NameAndType	#50:#61;//  $init$:(Lscala/xml/parsing/ExternalSources;)V
const #63 = Method	#60.#62;	//  scala/xml/parsing/ExternalSources$class.$init$:(Lscala/xml/parsing/ExternalSources;)V
const #64 = NameAndType	#34:#15;//  preserveWS:Z
const #65 = Field	#40.#64;	//  scala/xml/parsing/XhtmlParser.preserveWS:Z
const #66 = Asciz	ent;
const #67 = Asciz	()Lscala/collection/mutable/Map;;
const #68 = NameAndType	#66:#67;//  ent:()Lscala/collection/mutable/Map;
const #69 = Method	#40.#68;	//  scala/xml/parsing/XhtmlParser.ent:()Lscala/collection/mutable/Map;
const #70 = Asciz	scala/xml/parsing/XhtmlEntities$;
const #71 = class	#70;	//  scala/xml/parsing/XhtmlEntities$
const #72 = Asciz	Lscala/xml/parsing/XhtmlEntities$;;
const #73 = NameAndType	#8:#72;//  MODULE$:Lscala/xml/parsing/XhtmlEntities$;
const #74 = Field	#71.#73;	//  scala/xml/parsing/XhtmlEntities$.MODULE$:Lscala/xml/parsing/XhtmlEntities$;
const #75 = Asciz	()Lscala/collection/immutable/List;;
const #76 = NameAndType	#3:#75;//  apply:()Lscala/collection/immutable/List;
const #77 = Method	#71.#76;	//  scala/xml/parsing/XhtmlEntities$.apply:()Lscala/collection/immutable/List;
const #78 = Asciz	scala/collection/generic/Growable;
const #79 = class	#78;	//  scala/collection/generic/Growable
const #80 = Asciz	$plus$plus$eq;
const #81 = Asciz	(Lscala/collection/Traversable;)Lscala/collection/generic/Growable;;
const #82 = NameAndType	#80:#81;//  $plus$plus$eq:(Lscala/collection/Traversable;)Lscala/collection/generic/Growable;
const #83 = InterfaceMethod	#79.#82;	//  scala/collection/generic/Growable.$plus$plus$eq:(Lscala/collection/Traversable;)Lscala/collection/generic/Growable;
const #84 = Asciz	this;
const #85 = Asciz	Lscala/xml/parsing/XhtmlParser;;
const #86 = Asciz	LocalVariableTable;
const #87 = Asciz	()Z;
const #88 = Asciz	()Lscala/io/Source;;
const #89 = Asciz	checkPubID;
const #90 = Asciz	(Ljava/lang/String;)Z;
const #91 = Asciz	(Lscala/xml/parsing/TokenTests;Ljava/lang/String;)Z;
const #92 = NameAndType	#89:#91;//  checkPubID:(Lscala/xml/parsing/TokenTests;Ljava/lang/String;)Z
const #93 = Method	#49.#92;	//  scala/xml/parsing/TokenTests$class.checkPubID:(Lscala/xml/parsing/TokenTests;Ljava/lang/String;)Z
const #94 = Asciz	s;
const #95 = Asciz	Ljava/lang/String;;
const #96 = Asciz	checkSysID;
const #97 = NameAndType	#96:#91;//  checkSysID:(Lscala/xml/parsing/TokenTests;Ljava/lang/String;)Z
const #98 = Method	#49.#97;	//  scala/xml/parsing/TokenTests$class.checkSysID:(Lscala/xml/parsing/TokenTests;Ljava/lang/String;)Z
const #99 = Asciz	isValidIANAEncoding;
const #100 = Asciz	(Lscala/collection/Seq;)Z;
const #101 = Asciz	(Lscala/xml/parsing/TokenTests;Lscala/collection/Seq;)Z;
const #102 = NameAndType	#99:#101;//  isValidIANAEncoding:(Lscala/xml/parsing/TokenTests;Lscala/collection/Seq;)Z
const #103 = Method	#49.#102;	//  scala/xml/parsing/TokenTests$class.isValidIANAEncoding:(Lscala/xml/parsing/TokenTests;Lscala/collection/Seq;)Z
const #104 = Asciz	ianaEncoding;
const #105 = Asciz	Lscala/collection/Seq;;
const #106 = Asciz	isPubIDChar;
const #107 = Asciz	(C)Z;
const #108 = Asciz	(Lscala/xml/parsing/TokenTests;C)Z;
const #109 = NameAndType	#106:#108;//  isPubIDChar:(Lscala/xml/parsing/TokenTests;C)Z
const #110 = Method	#49.#109;	//  scala/xml/parsing/TokenTests$class.isPubIDChar:(Lscala/xml/parsing/TokenTests;C)Z
const #111 = Asciz	isName;
const #112 = NameAndType	#111:#91;//  isName:(Lscala/xml/parsing/TokenTests;Ljava/lang/String;)Z
const #113 = Method	#49.#112;	//  scala/xml/parsing/TokenTests$class.isName:(Lscala/xml/parsing/TokenTests;Ljava/lang/String;)Z
const #114 = Asciz	isNameStart;
const #115 = NameAndType	#114:#108;//  isNameStart:(Lscala/xml/parsing/TokenTests;C)Z
const #116 = Method	#49.#115;	//  scala/xml/parsing/TokenTests$class.isNameStart:(Lscala/xml/parsing/TokenTests;C)Z
const #117 = Asciz	isNameChar;
const #118 = NameAndType	#117:#108;//  isNameChar:(Lscala/xml/parsing/TokenTests;C)Z
const #119 = Method	#49.#118;	//  scala/xml/parsing/TokenTests$class.isNameChar:(Lscala/xml/parsing/TokenTests;C)Z
const #120 = Asciz	isAlphaDigit;
const #121 = NameAndType	#120:#108;//  isAlphaDigit:(Lscala/xml/parsing/TokenTests;C)Z
const #122 = Method	#49.#121;	//  scala/xml/parsing/TokenTests$class.isAlphaDigit:(Lscala/xml/parsing/TokenTests;C)Z
const #123 = Asciz	c;
const #124 = Asciz	isAlpha;
const #125 = NameAndType	#124:#108;//  isAlpha:(Lscala/xml/parsing/TokenTests;C)Z
const #126 = Method	#49.#125;	//  scala/xml/parsing/TokenTests$class.isAlpha:(Lscala/xml/parsing/TokenTests;C)Z
const #127 = Asciz	isSpace;
const #128 = NameAndType	#127:#101;//  isSpace:(Lscala/xml/parsing/TokenTests;Lscala/collection/Seq;)Z
const #129 = Method	#49.#128;	//  scala/xml/parsing/TokenTests$class.isSpace:(Lscala/xml/parsing/TokenTests;Lscala/collection/Seq;)Z
const #130 = Asciz	cs;
const #131 = NameAndType	#127:#108;//  isSpace:(Lscala/xml/parsing/TokenTests;C)Z
const #132 = Method	#49.#131;	//  scala/xml/parsing/TokenTests$class.isSpace:(Lscala/xml/parsing/TokenTests;C)Z
const #133 = Asciz	normalizeAttributeValue;
const #134 = Asciz	(Ljava/lang/String;)Ljava/lang/String;;
const #135 = Asciz	(Lscala/xml/parsing/MarkupParser;Ljava/lang/String;)Ljava/lang/String;;
const #136 = NameAndType	#133:#135;//  normalizeAttributeValue:(Lscala/xml/parsing/MarkupParser;Ljava/lang/String;)Ljava/lang/String;
const #137 = Method	#55.#136;	//  scala/xml/parsing/MarkupParser$class.normalizeAttributeValue:(Lscala/xml/parsing/MarkupParser;Ljava/lang/String;)Ljava/lang/String;
const #138 = Asciz	attval;
const #139 = Asciz	pop;
const #140 = NameAndType	#139:#56;//  pop:(Lscala/xml/parsing/MarkupParser;)V
const #141 = Method	#55.#140;	//  scala/xml/parsing/MarkupParser$class.pop:(Lscala/xml/parsing/MarkupParser;)V
const #142 = Asciz	pushExternal;
const #143 = Asciz	(Ljava/lang/String;)V;
const #144 = Asciz	(Lscala/xml/parsing/MarkupParser;Ljava/lang/String;)V;
const #145 = NameAndType	#142:#144;//  pushExternal:(Lscala/xml/parsing/MarkupParser;Ljava/lang/String;)V
const #146 = Method	#55.#145;	//  scala/xml/parsing/MarkupParser$class.pushExternal:(Lscala/xml/parsing/MarkupParser;Ljava/lang/String;)V
const #147 = Asciz	systemId;
const #148 = Asciz	push;
const #149 = NameAndType	#148:#144;//  push:(Lscala/xml/parsing/MarkupParser;Ljava/lang/String;)V
const #150 = Method	#55.#149;	//  scala/xml/parsing/MarkupParser$class.push:(Lscala/xml/parsing/MarkupParser;Ljava/lang/String;)V
const #151 = Asciz	entityName;
const #152 = Asciz	reportValidationError;
const #153 = Asciz	(ILjava/lang/String;)V;
const #154 = Asciz	(Lscala/xml/parsing/MarkupParser;ILjava/lang/String;)V;
const #155 = NameAndType	#152:#154;//  reportValidationError:(Lscala/xml/parsing/MarkupParser;ILjava/lang/String;)V
const #156 = Method	#55.#155;	//  scala/xml/parsing/MarkupParser$class.reportValidationError:(Lscala/xml/parsing/MarkupParser;ILjava/lang/String;)V
const #157 = Asciz	str;
const #158 = Asciz	reportSyntaxError;
const #159 = NameAndType	#158:#144;//  reportSyntaxError:(Lscala/xml/parsing/MarkupParser;Ljava/lang/String;)V
const #160 = Method	#55.#159;	//  scala/xml/parsing/MarkupParser$class.reportSyntaxError:(Lscala/xml/parsing/MarkupParser;Ljava/lang/String;)V
const #161 = NameAndType	#158:#154;//  reportSyntaxError:(Lscala/xml/parsing/MarkupParser;ILjava/lang/String;)V
const #162 = Method	#55.#161;	//  scala/xml/parsing/MarkupParser$class.reportSyntaxError:(Lscala/xml/parsing/MarkupParser;ILjava/lang/String;)V
const #163 = Asciz	notationDecl;
const #164 = NameAndType	#163:#56;//  notationDecl:(Lscala/xml/parsing/MarkupParser;)V
const #165 = Method	#55.#164;	//  scala/xml/parsing/MarkupParser$class.notationDecl:(Lscala/xml/parsing/MarkupParser;)V
const #166 = Asciz	entityDecl;
const #167 = NameAndType	#166:#56;//  entityDecl:(Lscala/xml/parsing/MarkupParser;)V
const #168 = Method	#55.#167;	//  scala/xml/parsing/MarkupParser$class.entityDecl:(Lscala/xml/parsing/MarkupParser;)V
const #169 = Asciz	attrDecl;
const #170 = NameAndType	#169:#56;//  attrDecl:(Lscala/xml/parsing/MarkupParser;)V
const #171 = Method	#55.#170;	//  scala/xml/parsing/MarkupParser$class.attrDecl:(Lscala/xml/parsing/MarkupParser;)V
const #172 = Asciz	elementDecl;
const #173 = NameAndType	#172:#56;//  elementDecl:(Lscala/xml/parsing/MarkupParser;)V
const #174 = Method	#55.#173;	//  scala/xml/parsing/MarkupParser$class.elementDecl:(Lscala/xml/parsing/MarkupParser;)V
const #175 = Asciz	intSubset;
const #176 = NameAndType	#175:#56;//  intSubset:(Lscala/xml/parsing/MarkupParser;)V
const #177 = Method	#55.#176;	//  scala/xml/parsing/MarkupParser$class.intSubset:(Lscala/xml/parsing/MarkupParser;)V
const #178 = Asciz	markupDecl;
const #179 = NameAndType	#178:#56;//  markupDecl:(Lscala/xml/parsing/MarkupParser;)V
const #180 = Method	#55.#179;	//  scala/xml/parsing/MarkupParser$class.markupDecl:(Lscala/xml/parsing/MarkupParser;)V
const #181 = Asciz	markupDecl1;
const #182 = Asciz	()Ljava/lang/Object;;
const #183 = Asciz	(Lscala/xml/parsing/MarkupParser;)Ljava/lang/Object;;
const #184 = NameAndType	#181:#183;//  markupDecl1:(Lscala/xml/parsing/MarkupParser;)Ljava/lang/Object;
const #185 = Method	#55.#184;	//  scala/xml/parsing/MarkupParser$class.markupDecl1:(Lscala/xml/parsing/MarkupParser;)Ljava/lang/Object;
const #186 = Asciz	extSubset;
const #187 = NameAndType	#186:#56;//  extSubset:(Lscala/xml/parsing/MarkupParser;)V
const #188 = Method	#55.#187;	//  scala/xml/parsing/MarkupParser$class.extSubset:(Lscala/xml/parsing/MarkupParser;)V
const #189 = Asciz	pubidLiteral;
const #190 = Asciz	()Ljava/lang/String;;
const #191 = Asciz	(Lscala/xml/parsing/MarkupParser;)Ljava/lang/String;;
const #192 = NameAndType	#189:#191;//  pubidLiteral:(Lscala/xml/parsing/MarkupParser;)Ljava/lang/String;
const #193 = Method	#55.#192;	//  scala/xml/parsing/MarkupParser$class.pubidLiteral:(Lscala/xml/parsing/MarkupParser;)Ljava/lang/String;
const #194 = Asciz	systemLiteral;
const #195 = NameAndType	#194:#191;//  systemLiteral:(Lscala/xml/parsing/MarkupParser;)Ljava/lang/String;
const #196 = Method	#55.#195;	//  scala/xml/parsing/MarkupParser$class.systemLiteral:(Lscala/xml/parsing/MarkupParser;)Ljava/lang/String;
const #197 = Asciz	xText;
const #198 = NameAndType	#197:#191;//  xText:(Lscala/xml/parsing/MarkupParser;)Ljava/lang/String;
const #199 = Method	#55.#198;	//  scala/xml/parsing/MarkupParser$class.xText:(Lscala/xml/parsing/MarkupParser;)Ljava/lang/String;
const #200 = Asciz	xProcInstr;
const #201 = Asciz	()Lscala/xml/NodeSeq;;
const #202 = Asciz	(Lscala/xml/parsing/MarkupParser;)Lscala/xml/NodeSeq;;
const #203 = NameAndType	#200:#202;//  xProcInstr:(Lscala/xml/parsing/MarkupParser;)Lscala/xml/NodeSeq;
const #204 = Method	#55.#203;	//  scala/xml/parsing/MarkupParser$class.xProcInstr:(Lscala/xml/parsing/MarkupParser;)Lscala/xml/NodeSeq;
const #205 = Asciz	xSpace;
const #206 = NameAndType	#205:#56;//  xSpace:(Lscala/xml/parsing/MarkupParser;)V
const #207 = Method	#55.#206;	//  scala/xml/parsing/MarkupParser$class.xSpace:(Lscala/xml/parsing/MarkupParser;)V
const #208 = Asciz	xSpaceOpt;
const #209 = NameAndType	#208:#56;//  xSpaceOpt:(Lscala/xml/parsing/MarkupParser;)V
const #210 = Method	#55.#209;	//  scala/xml/parsing/MarkupParser$class.xSpaceOpt:(Lscala/xml/parsing/MarkupParser;)V
const #211 = Asciz	xEQ;
const #212 = NameAndType	#211:#56;//  xEQ:(Lscala/xml/parsing/MarkupParser;)V
const #213 = Method	#55.#212;	//  scala/xml/parsing/MarkupParser$class.xEQ:(Lscala/xml/parsing/MarkupParser;)V
const #214 = Asciz	xName;
const #215 = NameAndType	#214:#191;//  xName:(Lscala/xml/parsing/MarkupParser;)Ljava/lang/String;
const #216 = Method	#55.#215;	//  scala/xml/parsing/MarkupParser$class.xName:(Lscala/xml/parsing/MarkupParser;)Ljava/lang/String;
const #217 = Asciz	element1;
const #218 = Asciz	(Lscala/xml/NamespaceBinding;)Lscala/xml/NodeSeq;;
const #219 = Asciz	(Lscala/xml/parsing/MarkupParser;Lscala/xml/NamespaceBinding;)Lscala/xml/NodeSeq;;
const #220 = NameAndType	#217:#219;//  element1:(Lscala/xml/parsing/MarkupParser;Lscala/xml/NamespaceBinding;)Lscala/xml/NodeSeq;
const #221 = Method	#55.#220;	//  scala/xml/parsing/MarkupParser$class.element1:(Lscala/xml/parsing/MarkupParser;Lscala/xml/NamespaceBinding;)Lscala/xml/NodeSeq;
const #222 = Asciz	pscope;
const #223 = Asciz	Lscala/xml/NamespaceBinding;;
const #224 = Asciz	element;
const #225 = NameAndType	#224:#219;//  element:(Lscala/xml/parsing/MarkupParser;Lscala/xml/NamespaceBinding;)Lscala/xml/NodeSeq;
const #226 = Method	#55.#225;	//  scala/xml/parsing/MarkupParser$class.element:(Lscala/xml/parsing/MarkupParser;Lscala/xml/NamespaceBinding;)Lscala/xml/NodeSeq;
const #227 = Asciz	parseDTD;
const #228 = NameAndType	#227:#56;//  parseDTD:(Lscala/xml/parsing/MarkupParser;)V
const #229 = Method	#55.#228;	//  scala/xml/parsing/MarkupParser$class.parseDTD:(Lscala/xml/parsing/MarkupParser;)V
const #230 = Asciz	externalID;
const #231 = Asciz	()Lscala/xml/dtd/ExternalID;;
const #232 = Asciz	(Lscala/xml/parsing/MarkupParser;)Lscala/xml/dtd/ExternalID;;
const #233 = NameAndType	#230:#232;//  externalID:(Lscala/xml/parsing/MarkupParser;)Lscala/xml/dtd/ExternalID;
const #234 = Method	#55.#233;	//  scala/xml/parsing/MarkupParser$class.externalID:(Lscala/xml/parsing/MarkupParser;)Lscala/xml/dtd/ExternalID;
const #235 = Asciz	content;
const #236 = NameAndType	#235:#219;//  content:(Lscala/xml/parsing/MarkupParser;Lscala/xml/NamespaceBinding;)Lscala/xml/NodeSeq;
const #237 = Method	#55.#236;	//  scala/xml/parsing/MarkupParser$class.content:(Lscala/xml/parsing/MarkupParser;Lscala/xml/NamespaceBinding;)Lscala/xml/NodeSeq;
const #238 = Asciz	content1;
const #239 = Asciz	(Lscala/xml/NamespaceBinding;Lscala/xml/NodeBuffer;)V;
const #240 = Asciz	(Lscala/xml/parsing/MarkupParser;Lscala/xml/NamespaceBinding;Lscala/xml/NodeBuffer;)V;
const #241 = NameAndType	#238:#240;//  content1:(Lscala/xml/parsing/MarkupParser;Lscala/xml/NamespaceBinding;Lscala/xml/NodeBuffer;)V
const #242 = Method	#55.#241;	//  scala/xml/parsing/MarkupParser$class.content1:(Lscala/xml/parsing/MarkupParser;Lscala/xml/NamespaceBinding;Lscala/xml/NodeBuffer;)V
const #243 = Asciz	ts;
const #244 = Asciz	Lscala/xml/NodeBuffer;;
const #245 = Asciz	appendText;
const #246 = Asciz	(ILscala/xml/NodeBuffer;Ljava/lang/String;)V;
const #247 = Asciz	(Lscala/xml/parsing/MarkupParser;ILscala/xml/NodeBuffer;Ljava/lang/String;)V;
const #248 = NameAndType	#245:#247;//  appendText:(Lscala/xml/parsing/MarkupParser;ILscala/xml/NodeBuffer;Ljava/lang/String;)V
const #249 = Method	#55.#248;	//  scala/xml/parsing/MarkupParser$class.appendText:(Lscala/xml/parsing/MarkupParser;ILscala/xml/NodeBuffer;Ljava/lang/String;)V
const #250 = Asciz	txt;
const #251 = Asciz	xComment;
const #252 = NameAndType	#251:#202;//  xComment:(Lscala/xml/parsing/MarkupParser;)Lscala/xml/NodeSeq;
const #253 = Method	#55.#252;	//  scala/xml/parsing/MarkupParser$class.xComment:(Lscala/xml/parsing/MarkupParser;)Lscala/xml/NodeSeq;
const #254 = Asciz	xCharRef;
const #255 = Asciz	(Lscala/Function0;Lscala/Function0;)Ljava/lang/String;;
const #256 = Asciz	(Lscala/xml/parsing/MarkupParser;Lscala/Function0;Lscala/Function0;)Ljava/lang/String;;
const #257 = NameAndType	#254:#256;//  xCharRef:(Lscala/xml/parsing/MarkupParser;Lscala/Function0;Lscala/Function0;)Ljava/lang/String;
const #258 = Method	#55.#257;	//  scala/xml/parsing/MarkupParser$class.xCharRef:(Lscala/xml/parsing/MarkupParser;Lscala/Function0;Lscala/Function0;)Ljava/lang/String;
const #259 = Asciz	Lscala/Function0;;
const #260 = Asciz	nextch;
const #261 = Asciz	xCharData;
const #262 = NameAndType	#261:#202;//  xCharData:(Lscala/xml/parsing/MarkupParser;)Lscala/xml/NodeSeq;
const #263 = Method	#55.#262;	//  scala/xml/parsing/MarkupParser$class.xCharData:(Lscala/xml/parsing/MarkupParser;)Lscala/xml/NodeSeq;
const #264 = Asciz	xEndTag;
const #265 = NameAndType	#264:#144;//  xEndTag:(Lscala/xml/parsing/MarkupParser;Ljava/lang/String;)V
const #266 = Method	#55.#265;	//  scala/xml/parsing/MarkupParser$class.xEndTag:(Lscala/xml/parsing/MarkupParser;Ljava/lang/String;)V
const #267 = Asciz	n;
const #268 = Asciz	xTag;
const #269 = Asciz	(Lscala/xml/NamespaceBinding;)Lscala/Tuple3;;
const #270 = Asciz	(Lscala/xml/parsing/MarkupParser;Lscala/xml/NamespaceBinding;)Lscala/Tuple3;;
const #271 = NameAndType	#268:#270;//  xTag:(Lscala/xml/parsing/MarkupParser;Lscala/xml/NamespaceBinding;)Lscala/Tuple3;
const #272 = Method	#55.#271;	//  scala/xml/parsing/MarkupParser$class.xTag:(Lscala/xml/parsing/MarkupParser;Lscala/xml/NamespaceBinding;)Lscala/Tuple3;
const #273 = Asciz	xEntityValue;
const #274 = NameAndType	#273:#191;//  xEntityValue:(Lscala/xml/parsing/MarkupParser;)Ljava/lang/String;
const #275 = Method	#55.#274;	//  scala/xml/parsing/MarkupParser$class.xEntityValue:(Lscala/xml/parsing/MarkupParser;)Ljava/lang/String;
const #276 = Asciz	xAttributeValue;
const #277 = NameAndType	#276:#191;//  xAttributeValue:(Lscala/xml/parsing/MarkupParser;)Ljava/lang/String;
const #278 = Method	#55.#277;	//  scala/xml/parsing/MarkupParser$class.xAttributeValue:(Lscala/xml/parsing/MarkupParser;)Ljava/lang/String;
const #279 = Asciz	xAttributes;
const #280 = Asciz	(Lscala/xml/NamespaceBinding;)Lscala/Tuple2;;
const #281 = Asciz	(Lscala/xml/parsing/MarkupParser;Lscala/xml/NamespaceBinding;)Lscala/Tuple2;;
const #282 = NameAndType	#279:#281;//  xAttributes:(Lscala/xml/parsing/MarkupParser;Lscala/xml/NamespaceBinding;)Lscala/Tuple2;
const #283 = Method	#55.#282;	//  scala/xml/parsing/MarkupParser$class.xAttributes:(Lscala/xml/parsing/MarkupParser;Lscala/xml/NamespaceBinding;)Lscala/Tuple2;
const #284 = Asciz	xToken;
const #285 = Asciz	(Lscala/collection/Seq;)V;
const #286 = Asciz	(Lscala/xml/parsing/MarkupParser;Lscala/collection/Seq;)V;
const #287 = NameAndType	#284:#286;//  xToken:(Lscala/xml/parsing/MarkupParser;Lscala/collection/Seq;)V
const #288 = Method	#55.#287;	//  scala/xml/parsing/MarkupParser$class.xToken:(Lscala/xml/parsing/MarkupParser;Lscala/collection/Seq;)V
const #289 = Asciz	that;
const #290 = Asciz	(C)V;
const #291 = Asciz	(Lscala/xml/parsing/MarkupParser;C)V;
const #292 = NameAndType	#284:#291;//  xToken:(Lscala/xml/parsing/MarkupParser;C)V
const #293 = Method	#55.#292;	//  scala/xml/parsing/MarkupParser$class.xToken:(Lscala/xml/parsing/MarkupParser;C)V
const #294 = NameAndType	#260:#56;//  nextch:(Lscala/xml/parsing/MarkupParser;)V
const #295 = Method	#55.#294;	//  scala/xml/parsing/MarkupParser$class.nextch:(Lscala/xml/parsing/MarkupParser;)V
const #296 = Asciz	initialize;
const #297 = Asciz	()Lscala/xml/parsing/MarkupParser;;
const #298 = Asciz	(Lscala/xml/parsing/MarkupParser;)Lscala/xml/parsing/MarkupParser;;
const #299 = NameAndType	#296:#298;//  initialize:(Lscala/xml/parsing/MarkupParser;)Lscala/xml/parsing/MarkupParser;
const #300 = Method	#55.#299;	//  scala/xml/parsing/MarkupParser$class.initialize:(Lscala/xml/parsing/MarkupParser;)Lscala/xml/parsing/MarkupParser;
const #301 = Asciz	putChar;
const #302 = Asciz	(C)Lscala/collection/mutable/StringBuilder;;
const #303 = Asciz	(Lscala/xml/parsing/MarkupParser;C)Lscala/collection/mutable/StringBuilder;;
const #304 = NameAndType	#301:#303;//  putChar:(Lscala/xml/parsing/MarkupParser;C)Lscala/collection/mutable/StringBuilder;
const #305 = Method	#55.#304;	//  scala/xml/parsing/MarkupParser$class.putChar:(Lscala/xml/parsing/MarkupParser;C)Lscala/collection/mutable/StringBuilder;
const #306 = Asciz	document;
const #307 = Asciz	()Lscala/xml/Document;;
const #308 = Asciz	(Lscala/xml/parsing/MarkupParser;)Lscala/xml/Document;;
const #309 = NameAndType	#306:#308;//  document:(Lscala/xml/parsing/MarkupParser;)Lscala/xml/Document;
const #310 = Method	#55.#309;	//  scala/xml/parsing/MarkupParser$class.document:(Lscala/xml/parsing/MarkupParser;)Lscala/xml/Document;
const #311 = Asciz	textDecl;
const #312 = Asciz	()Lscala/Tuple2;;
const #313 = Asciz	(Lscala/xml/parsing/MarkupParser;)Lscala/Tuple2;;
const #314 = NameAndType	#311:#313;//  textDecl:(Lscala/xml/parsing/MarkupParser;)Lscala/Tuple2;
const #315 = Method	#55.#314;	//  scala/xml/parsing/MarkupParser$class.textDecl:(Lscala/xml/parsing/MarkupParser;)Lscala/Tuple2;
const #316 = Asciz	prolog;
const #317 = Asciz	()Lscala/Tuple3;;
const #318 = Asciz	(Lscala/xml/parsing/MarkupParser;)Lscala/Tuple3;;
const #319 = NameAndType	#316:#318;//  prolog:(Lscala/xml/parsing/MarkupParser;)Lscala/Tuple3;
const #320 = Method	#55.#319;	//  scala/xml/parsing/MarkupParser$class.prolog:(Lscala/xml/parsing/MarkupParser;)Lscala/Tuple3;
const #321 = Asciz	xmlProcInstr;
const #322 = Asciz	()Lscala/xml/MetaData;;
const #323 = Asciz	(Lscala/xml/parsing/MarkupParser;)Lscala/xml/MetaData;;
const #324 = NameAndType	#321:#323;//  xmlProcInstr:(Lscala/xml/parsing/MarkupParser;)Lscala/xml/MetaData;
const #325 = Method	#55.#324;	//  scala/xml/parsing/MarkupParser$class.xmlProcInstr:(Lscala/xml/parsing/MarkupParser;)Lscala/xml/MetaData;
const #326 = Asciz	scala$xml$parsing$MarkupParser$_setter_$cbuf_$eq;
const #327 = Asciz	(Lscala/collection/mutable/StringBuilder;)V;
const #328 = NameAndType	#20:#21;//  cbuf:Lscala/collection/mutable/StringBuilder;
const #329 = Field	#40.#328;	//  scala/xml/parsing/XhtmlParser.cbuf:Lscala/collection/mutable/StringBuilder;
const #330 = Asciz	scala$xml$parsing$MarkupParser$_setter_$scala$xml$parsing$MarkupParser$$handle_$eq;
const #331 = Asciz	(Lscala/xml/parsing/MarkupHandler;)V;
const #332 = NameAndType	#30:#31;//  scala$xml$parsing$MarkupParser$$handle:Lscala/xml/parsing/MarkupHandler;
const #333 = Field	#40.#332;	//  scala/xml/parsing/XhtmlParser.scala$xml$parsing$MarkupParser$$handle:Lscala/xml/parsing/MarkupHandler;
const #334 = Asciz	eof_$eq;
const #335 = Asciz	(Z)V;
const #336 = NameAndType	#14:#15;//  eof:Z
const #337 = Field	#40.#336;	//  scala/xml/parsing/XhtmlParser.eof:Z
const #338 = Asciz	doc_$eq;
const #339 = Asciz	(Lscala/xml/Document;)V;
const #340 = NameAndType	#16:#17;//  doc:Lscala/xml/Document;
const #341 = Field	#40.#340;	//  scala/xml/parsing/XhtmlParser.doc:Lscala/xml/Document;
const #342 = Asciz	dtd_$eq;
const #343 = Asciz	(Lscala/xml/dtd/DTD;)V;
const #344 = NameAndType	#18:#19;//  dtd:Lscala/xml/dtd/DTD;
const #345 = Field	#40.#344;	//  scala/xml/parsing/XhtmlParser.dtd:Lscala/xml/dtd/DTD;
const #346 = Asciz	()Lscala/xml/dtd/DTD;;
const #347 = Asciz	()Lscala/collection/mutable/StringBuilder;;
const #348 = Asciz	ch_$eq;
const #349 = NameAndType	#22:#23;//  ch:C
const #350 = Field	#40.#349;	//  scala/xml/parsing/XhtmlParser.ch:C
const #351 = Asciz	()C;
const #352 = Asciz	tmppos_$eq;
const #353 = Asciz	(I)V;
const #354 = NameAndType	#24:#25;//  tmppos:I
const #355 = Field	#40.#354;	//  scala/xml/parsing/XhtmlParser.tmppos:I
const #356 = Asciz	()I;
const #357 = Asciz	extIndex_$eq;
const #358 = NameAndType	#26:#25;//  extIndex:I
const #359 = Field	#40.#358;	//  scala/xml/parsing/XhtmlParser.extIndex:I
const #360 = Asciz	pos_$eq;
const #361 = NameAndType	#27:#25;//  pos:I
const #362 = Field	#40.#361;	//  scala/xml/parsing/XhtmlParser.pos:I
const #363 = Asciz	inpStack_$eq;
const #364 = Asciz	(Lscala/collection/immutable/List;)V;
const #365 = NameAndType	#28:#29;//  inpStack:Lscala/collection/immutable/List;
const #366 = Field	#40.#365;	//  scala/xml/parsing/XhtmlParser.inpStack:Lscala/collection/immutable/List;
const #367 = Asciz	()Lscala/xml/parsing/MarkupHandler;;
const #368 = Asciz	curInput_$eq;
const #369 = NameAndType	#32:#33;//  curInput:Lscala/io/Source;
const #370 = Field	#40.#369;	//  scala/xml/parsing/XhtmlParser.curInput:Lscala/io/Source;
const #371 = Asciz	externalSource;
const #372 = Asciz	(Ljava/lang/String;)Lscala/io/Source;;
const #373 = Asciz	(Lscala/xml/parsing/ExternalSources;Ljava/lang/String;)Lscala/io/Source;;
const #374 = NameAndType	#371:#373;//  externalSource:(Lscala/xml/parsing/ExternalSources;Ljava/lang/String;)Lscala/io/Source;
const #375 = Method	#60.#374;	//  scala/xml/parsing/ExternalSources$class.externalSource:(Lscala/xml/parsing/ExternalSources;Ljava/lang/String;)Lscala/io/Source;
const #376 = Asciz	ScalaSig;
const #377 = Asciz	scala/xml/parsing/MarkupParser;
const #378 = class	#377;	//  scala/xml/parsing/MarkupParser
const #379 = Asciz	scala/xml/parsing/ExternalSources;
const #380 = class	#379;	//  scala/xml/parsing/ExternalSources
const #381 = Asciz	scala/ScalaObject;
const #382 = class	#381;	//  scala/ScalaObject

{
public static final scala.xml.NodeSeq apply(scala.io.Source);
  Code:
   Stack=2, Locals=1, Args_size=1
   0:	getstatic	#11; //Field scala/xml/parsing/XhtmlParser$.MODULE$:Lscala/xml/parsing/XhtmlParser$;
   3:	aload_0
   4:	invokevirtual	#13; //Method scala/xml/parsing/XhtmlParser$.apply:(Lscala/io/Source;)Lscala/xml/NodeSeq;
   7:	areturn

public scala.xml.parsing.XhtmlParser(scala.io.Source);
  Code:
   Stack=2, Locals=2, Args_size=2
   0:	aload_0
   1:	aload_1
   2:	putfield	#42; //Field input:Lscala/io/Source;
   5:	aload_0
   6:	invokespecial	#47; //Method scala/xml/parsing/ConstructingHandler."<init>":()V
   9:	aload_0
   10:	invokestatic	#53; //Method scala/xml/parsing/TokenTests$class.$init$:(Lscala/xml/parsing/TokenTests;)V
   13:	aload_0
   14:	invokestatic	#58; //Method scala/xml/parsing/MarkupParser$class.$init$:(Lscala/xml/parsing/MarkupParser;)V
   17:	aload_0
   18:	invokestatic	#63; //Method scala/xml/parsing/ExternalSources$class.$init$:(Lscala/xml/parsing/ExternalSources;)V
   21:	aload_0
   22:	iconst_1
   23:	putfield	#65; //Field preserveWS:Z
   26:	aload_0
   27:	invokevirtual	#69; //Method ent:()Lscala/collection/mutable/Map;
   30:	getstatic	#74; //Field scala/xml/parsing/XhtmlEntities$.MODULE$:Lscala/xml/parsing/XhtmlEntities$;
   33:	invokevirtual	#77; //Method scala/xml/parsing/XhtmlEntities$.apply:()Lscala/collection/immutable/List;
   36:	invokeinterface	#83,  2; //InterfaceMethod scala/collection/generic/Growable.$plus$plus$eq:(Lscala/collection/Traversable;)Lscala/collection/generic/Growable;
   41:	pop
   42:	return
  LineNumberTable: 
   line 23: 0
   line 24: 21
   line 25: 26

  LocalVariableTable: 
   Start  Length  Slot  Name   Signature
   0      43      0    this       Lscala/xml/parsing/XhtmlParser;
   0      43      1    input       Lscala/io/Source;


public boolean preserveWS();
  Code:
   Stack=1, Locals=1, Args_size=1
   0:	aload_0
   1:	getfield	#65; //Field preserveWS:Z
   4:	ireturn
  LineNumberTable: 
   line 24: 0


public scala.io.Source input();
  Code:
   Stack=1, Locals=1, Args_size=1
   0:	aload_0
   1:	getfield	#42; //Field input:Lscala/io/Source;
   4:	areturn
  LineNumberTable: 
   line 23: 0


public boolean checkPubID(java.lang.String);
  Code:
   Stack=2, Locals=2, Args_size=2
   0:	aload_0
   1:	aload_1
   2:	invokestatic	#93; //Method scala/xml/parsing/TokenTests$class.checkPubID:(Lscala/xml/parsing/TokenTests;Ljava/lang/String;)Z
   5:	ireturn
  LineNumberTable: 
   line 23: 0

  LocalVariableTable: 
   Start  Length  Slot  Name   Signature
   0      6      0    this       Lscala/xml/parsing/XhtmlParser;
   0      6      1    s       Ljava/lang/String;


public boolean checkSysID(java.lang.String);
  Code:
   Stack=2, Locals=2, Args_size=2
   0:	aload_0
   1:	aload_1
   2:	invokestatic	#98; //Method scala/xml/parsing/TokenTests$class.checkSysID:(Lscala/xml/parsing/TokenTests;Ljava/lang/String;)Z
   5:	ireturn
  LineNumberTable: 
   line 23: 0

  LocalVariableTable: 
   Start  Length  Slot  Name   Signature
   0      6      0    this       Lscala/xml/parsing/XhtmlParser;
   0      6      1    s       Ljava/lang/String;


public boolean isValidIANAEncoding(scala.collection.Seq);
  Code:
   Stack=2, Locals=2, Args_size=2
   0:	aload_0
   1:	aload_1
   2:	invokestatic	#103; //Method scala/xml/parsing/TokenTests$class.isValidIANAEncoding:(Lscala/xml/parsing/TokenTests;Lscala/collection/Seq;)Z
   5:	ireturn
  LineNumberTable: 
   line 23: 0

  LocalVariableTable: 
   Start  Length  Slot  Name   Signature
   0      6      0    this       Lscala/xml/parsing/XhtmlParser;
   0      6      1    ianaEncoding       Lscala/collection/Seq;


public boolean isPubIDChar(char);
  Code:
   Stack=2, Locals=2, Args_size=2
   0:	aload_0
   1:	iload_1
   2:	invokestatic	#110; //Method scala/xml/parsing/TokenTests$class.isPubIDChar:(Lscala/xml/parsing/TokenTests;C)Z
   5:	ireturn
  LineNumberTable: 
   line 23: 0

  LocalVariableTable: 
   Start  Length  Slot  Name   Signature
   0      6      0    this       Lscala/xml/parsing/XhtmlParser;
   0      6      1    ch       C


public boolean isName(java.lang.String);
  Code:
   Stack=2, Locals=2, Args_size=2
   0:	aload_0
   1:	aload_1
   2:	invokestatic	#113; //Method scala/xml/parsing/TokenTests$class.isName:(Lscala/xml/parsing/TokenTests;Ljava/lang/String;)Z
   5:	ireturn
  LineNumberTable: 
   line 23: 0

  LocalVariableTable: 
   Start  Length  Slot  Name   Signature
   0      6      0    this       Lscala/xml/parsing/XhtmlParser;
   0      6      1    s       Ljava/lang/String;


public boolean isNameStart(char);
  Code:
   Stack=2, Locals=2, Args_size=2
   0:	aload_0
   1:	iload_1
   2:	invokestatic	#116; //Method scala/xml/parsing/TokenTests$class.isNameStart:(Lscala/xml/parsing/TokenTests;C)Z
   5:	ireturn
  LineNumberTable: 
   line 23: 0

  LocalVariableTable: 
   Start  Length  Slot  Name   Signature
   0      6      0    this       Lscala/xml/parsing/XhtmlParser;
   0      6      1    ch       C


public boolean isNameChar(char);
  Code:
   Stack=2, Locals=2, Args_size=2
   0:	aload_0
   1:	iload_1
   2:	invokestatic	#119; //Method scala/xml/parsing/TokenTests$class.isNameChar:(Lscala/xml/parsing/TokenTests;C)Z
   5:	ireturn
  LineNumberTable: 
   line 23: 0

  LocalVariableTable: 
   Start  Length  Slot  Name   Signature
   0      6      0    this       Lscala/xml/parsing/XhtmlParser;
   0      6      1    ch       C


public boolean isAlphaDigit(char);
  Code:
   Stack=2, Locals=2, Args_size=2
   0:	aload_0
   1:	iload_1
   2:	invokestatic	#122; //Method scala/xml/parsing/TokenTests$class.isAlphaDigit:(Lscala/xml/parsing/TokenTests;C)Z
   5:	ireturn
  LineNumberTable: 
   line 23: 0

  LocalVariableTable: 
   Start  Length  Slot  Name   Signature
   0      6      0    this       Lscala/xml/parsing/XhtmlParser;
   0      6      1    c       C


public boolean isAlpha(char);
  Code:
   Stack=2, Locals=2, Args_size=2
   0:	aload_0
   1:	iload_1
   2:	invokestatic	#126; //Method scala/xml/parsing/TokenTests$class.isAlpha:(Lscala/xml/parsing/TokenTests;C)Z
   5:	ireturn
  LineNumberTable: 
   line 23: 0

  LocalVariableTable: 
   Start  Length  Slot  Name   Signature
   0      6      0    this       Lscala/xml/parsing/XhtmlParser;
   0      6      1    c       C


public final boolean isSpace(scala.collection.Seq);
  Code:
   Stack=2, Locals=2, Args_size=2
   0:	aload_0
   1:	aload_1
   2:	invokestatic	#129; //Method scala/xml/parsing/TokenTests$class.isSpace:(Lscala/xml/parsing/TokenTests;Lscala/collection/Seq;)Z
   5:	ireturn
  LineNumberTable: 
   line 23: 0

  LocalVariableTable: 
   Start  Length  Slot  Name   Signature
   0      6      0    this       Lscala/xml/parsing/XhtmlParser;
   0      6      1    cs       Lscala/collection/Seq;


public final boolean isSpace(char);
  Code:
   Stack=2, Locals=2, Args_size=2
   0:	aload_0
   1:	iload_1
   2:	invokestatic	#132; //Method scala/xml/parsing/TokenTests$class.isSpace:(Lscala/xml/parsing/TokenTests;C)Z
   5:	ireturn
  LineNumberTable: 
   line 23: 0

  LocalVariableTable: 
   Start  Length  Slot  Name   Signature
   0      6      0    this       Lscala/xml/parsing/XhtmlParser;
   0      6      1    ch       C


public java.lang.String normalizeAttributeValue(java.lang.String);
  Code:
   Stack=2, Locals=2, Args_size=2
   0:	aload_0
   1:	aload_1
   2:	invokestatic	#137; //Method scala/xml/parsing/MarkupParser$class.normalizeAttributeValue:(Lscala/xml/parsing/MarkupParser;Ljava/lang/String;)Ljava/lang/String;
   5:	areturn
  LineNumberTable: 
   line 23: 0

  LocalVariableTable: 
   Start  Length  Slot  Name   Signature
   0      6      0    this       Lscala/xml/parsing/XhtmlParser;
   0      6      1    attval       Ljava/lang/String;


public void pop();
  Code:
   Stack=1, Locals=1, Args_size=1
   0:	aload_0
   1:	invokestatic	#141; //Method scala/xml/parsing/MarkupParser$class.pop:(Lscala/xml/parsing/MarkupParser;)V
   4:	return
  LineNumberTable: 
   line 23: 0


public void pushExternal(java.lang.String);
  Code:
   Stack=2, Locals=2, Args_size=2
   0:	aload_0
   1:	aload_1
   2:	invokestatic	#146; //Method scala/xml/parsing/MarkupParser$class.pushExternal:(Lscala/xml/parsing/MarkupParser;Ljava/lang/String;)V
   5:	return
  LineNumberTable: 
   line 23: 0

  LocalVariableTable: 
   Start  Length  Slot  Name   Signature
   0      6      0    this       Lscala/xml/parsing/XhtmlParser;
   0      6      1    systemId       Ljava/lang/String;


public void push(java.lang.String);
  Code:
   Stack=2, Locals=2, Args_size=2
   0:	aload_0
   1:	aload_1
   2:	invokestatic	#150; //Method scala/xml/parsing/MarkupParser$class.push:(Lscala/xml/parsing/MarkupParser;Ljava/lang/String;)V
   5:	return
  LineNumberTable: 
   line 23: 0

  LocalVariableTable: 
   Start  Length  Slot  Name   Signature
   0      6      0    this       Lscala/xml/parsing/XhtmlParser;
   0      6      1    entityName       Ljava/lang/String;


public void reportValidationError(int, java.lang.String);
  Code:
   Stack=3, Locals=3, Args_size=3
   0:	aload_0
   1:	iload_1
   2:	aload_2
   3:	invokestatic	#156; //Method scala/xml/parsing/MarkupParser$class.reportValidationError:(Lscala/xml/parsing/MarkupParser;ILjava/lang/String;)V
   6:	return
  LineNumberTable: 
   line 23: 0

  LocalVariableTable: 
   Start  Length  Slot  Name   Signature
   0      7      0    this       Lscala/xml/parsing/XhtmlParser;
   0      7      1    pos       I
   0      7      2    str       Ljava/lang/String;


public void reportSyntaxError(java.lang.String);
  Code:
   Stack=2, Locals=2, Args_size=2
   0:	aload_0
   1:	aload_1
   2:	invokestatic	#160; //Method scala/xml/parsing/MarkupParser$class.reportSyntaxError:(Lscala/xml/parsing/MarkupParser;Ljava/lang/String;)V
   5:	return
  LineNumberTable: 
   line 23: 0

  LocalVariableTable: 
   Start  Length  Slot  Name   Signature
   0      6      0    this       Lscala/xml/parsing/XhtmlParser;
   0      6      1    str       Ljava/lang/String;


public void reportSyntaxError(int, java.lang.String);
  Code:
   Stack=3, Locals=3, Args_size=3
   0:	aload_0
   1:	iload_1
   2:	aload_2
   3:	invokestatic	#162; //Method scala/xml/parsing/MarkupParser$class.reportSyntaxError:(Lscala/xml/parsing/MarkupParser;ILjava/lang/String;)V
   6:	return
  LineNumberTable: 
   line 23: 0

  LocalVariableTable: 
   Start  Length  Slot  Name   Signature
   0      7      0    this       Lscala/xml/parsing/XhtmlParser;
   0      7      1    pos       I
   0      7      2    str       Ljava/lang/String;


public void notationDecl();
  Code:
   Stack=1, Locals=1, Args_size=1
   0:	aload_0
   1:	invokestatic	#165; //Method scala/xml/parsing/MarkupParser$class.notationDecl:(Lscala/xml/parsing/MarkupParser;)V
   4:	return
  LineNumberTable: 
   line 23: 0


public void entityDecl();
  Code:
   Stack=1, Locals=1, Args_size=1
   0:	aload_0
   1:	invokestatic	#168; //Method scala/xml/parsing/MarkupParser$class.entityDecl:(Lscala/xml/parsing/MarkupParser;)V
   4:	return
  LineNumberTable: 
   line 23: 0


public void attrDecl();
  Code:
   Stack=1, Locals=1, Args_size=1
   0:	aload_0
   1:	invokestatic	#171; //Method scala/xml/parsing/MarkupParser$class.attrDecl:(Lscala/xml/parsing/MarkupParser;)V
   4:	return
  LineNumberTable: 
   line 23: 0


public void elementDecl();
  Code:
   Stack=1, Locals=1, Args_size=1
   0:	aload_0
   1:	invokestatic	#174; //Method scala/xml/parsing/MarkupParser$class.elementDecl:(Lscala/xml/parsing/MarkupParser;)V
   4:	return
  LineNumberTable: 
   line 23: 0


public void intSubset();
  Code:
   Stack=1, Locals=1, Args_size=1
   0:	aload_0
   1:	invokestatic	#177; //Method scala/xml/parsing/MarkupParser$class.intSubset:(Lscala/xml/parsing/MarkupParser;)V
   4:	return
  LineNumberTable: 
   line 23: 0


public void markupDecl();
  Code:
   Stack=1, Locals=1, Args_size=1
   0:	aload_0
   1:	invokestatic	#180; //Method scala/xml/parsing/MarkupParser$class.markupDecl:(Lscala/xml/parsing/MarkupParser;)V
   4:	return
  LineNumberTable: 
   line 23: 0


public java.lang.Object markupDecl1();
  Code:
   Stack=1, Locals=1, Args_size=1
   0:	aload_0
   1:	invokestatic	#185; //Method scala/xml/parsing/MarkupParser$class.markupDecl1:(Lscala/xml/parsing/MarkupParser;)Ljava/lang/Object;
   4:	areturn
  LineNumberTable: 
   line 23: 0


public void extSubset();
  Code:
   Stack=1, Locals=1, Args_size=1
   0:	aload_0
   1:	invokestatic	#188; //Method scala/xml/parsing/MarkupParser$class.extSubset:(Lscala/xml/parsing/MarkupParser;)V
   4:	return
  LineNumberTable: 
   line 23: 0


public java.lang.String pubidLiteral();
  Code:
   Stack=1, Locals=1, Args_size=1
   0:	aload_0
   1:	invokestatic	#193; //Method scala/xml/parsing/MarkupParser$class.pubidLiteral:(Lscala/xml/parsing/MarkupParser;)Ljava/lang/String;
   4:	areturn
  LineNumberTable: 
   line 23: 0


public java.lang.String systemLiteral();
  Code:
   Stack=1, Locals=1, Args_size=1
   0:	aload_0
   1:	invokestatic	#196; //Method scala/xml/parsing/MarkupParser$class.systemLiteral:(Lscala/xml/parsing/MarkupParser;)Ljava/lang/String;
   4:	areturn
  LineNumberTable: 
   line 23: 0


public java.lang.String xText();
  Code:
   Stack=1, Locals=1, Args_size=1
   0:	aload_0
   1:	invokestatic	#199; //Method scala/xml/parsing/MarkupParser$class.xText:(Lscala/xml/parsing/MarkupParser;)Ljava/lang/String;
   4:	areturn
  LineNumberTable: 
   line 23: 0


public scala.xml.NodeSeq xProcInstr();
  Code:
   Stack=1, Locals=1, Args_size=1
   0:	aload_0
   1:	invokestatic	#204; //Method scala/xml/parsing/MarkupParser$class.xProcInstr:(Lscala/xml/parsing/MarkupParser;)Lscala/xml/NodeSeq;
   4:	areturn
  LineNumberTable: 
   line 23: 0


public void xSpace();
  Code:
   Stack=1, Locals=1, Args_size=1
   0:	aload_0
   1:	invokestatic	#207; //Method scala/xml/parsing/MarkupParser$class.xSpace:(Lscala/xml/parsing/MarkupParser;)V
   4:	return
  LineNumberTable: 
   line 23: 0


public void xSpaceOpt();
  Code:
   Stack=1, Locals=1, Args_size=1
   0:	aload_0
   1:	invokestatic	#210; //Method scala/xml/parsing/MarkupParser$class.xSpaceOpt:(Lscala/xml/parsing/MarkupParser;)V
   4:	return
  LineNumberTable: 
   line 23: 0


public void xEQ();
  Code:
   Stack=1, Locals=1, Args_size=1
   0:	aload_0
   1:	invokestatic	#213; //Method scala/xml/parsing/MarkupParser$class.xEQ:(Lscala/xml/parsing/MarkupParser;)V
   4:	return
  LineNumberTable: 
   line 23: 0


public java.lang.String xName();
  Code:
   Stack=1, Locals=1, Args_size=1
   0:	aload_0
   1:	invokestatic	#216; //Method scala/xml/parsing/MarkupParser$class.xName:(Lscala/xml/parsing/MarkupParser;)Ljava/lang/String;
   4:	areturn
  LineNumberTable: 
   line 23: 0


public scala.xml.NodeSeq element1(scala.xml.NamespaceBinding);
  Code:
   Stack=2, Locals=2, Args_size=2
   0:	aload_0
   1:	aload_1
   2:	invokestatic	#221; //Method scala/xml/parsing/MarkupParser$class.element1:(Lscala/xml/parsing/MarkupParser;Lscala/xml/NamespaceBinding;)Lscala/xml/NodeSeq;
   5:	areturn
  LineNumberTable: 
   line 23: 0

  LocalVariableTable: 
   Start  Length  Slot  Name   Signature
   0      6      0    this       Lscala/xml/parsing/XhtmlParser;
   0      6      1    pscope       Lscala/xml/NamespaceBinding;


public scala.xml.NodeSeq element(scala.xml.NamespaceBinding);
  Code:
   Stack=2, Locals=2, Args_size=2
   0:	aload_0
   1:	aload_1
   2:	invokestatic	#226; //Method scala/xml/parsing/MarkupParser$class.element:(Lscala/xml/parsing/MarkupParser;Lscala/xml/NamespaceBinding;)Lscala/xml/NodeSeq;
   5:	areturn
  LineNumberTable: 
   line 23: 0

  LocalVariableTable: 
   Start  Length  Slot  Name   Signature
   0      6      0    this       Lscala/xml/parsing/XhtmlParser;
   0      6      1    pscope       Lscala/xml/NamespaceBinding;


public void parseDTD();
  Code:
   Stack=1, Locals=1, Args_size=1
   0:	aload_0
   1:	invokestatic	#229; //Method scala/xml/parsing/MarkupParser$class.parseDTD:(Lscala/xml/parsing/MarkupParser;)V
   4:	return
  LineNumberTable: 
   line 23: 0


public scala.xml.dtd.ExternalID externalID();
  Code:
   Stack=1, Locals=1, Args_size=1
   0:	aload_0
   1:	invokestatic	#234; //Method scala/xml/parsing/MarkupParser$class.externalID:(Lscala/xml/parsing/MarkupParser;)Lscala/xml/dtd/ExternalID;
   4:	areturn
  LineNumberTable: 
   line 23: 0


public scala.xml.NodeSeq content(scala.xml.NamespaceBinding);
  Code:
   Stack=2, Locals=2, Args_size=2
   0:	aload_0
   1:	aload_1
   2:	invokestatic	#237; //Method scala/xml/parsing/MarkupParser$class.content:(Lscala/xml/parsing/MarkupParser;Lscala/xml/NamespaceBinding;)Lscala/xml/NodeSeq;
   5:	areturn
  LineNumberTable: 
   line 23: 0

  LocalVariableTable: 
   Start  Length  Slot  Name   Signature
   0      6      0    this       Lscala/xml/parsing/XhtmlParser;
   0      6      1    pscope       Lscala/xml/NamespaceBinding;


public void content1(scala.xml.NamespaceBinding, scala.xml.NodeBuffer);
  Code:
   Stack=3, Locals=3, Args_size=3
   0:	aload_0
   1:	aload_1
   2:	aload_2
   3:	invokestatic	#242; //Method scala/xml/parsing/MarkupParser$class.content1:(Lscala/xml/parsing/MarkupParser;Lscala/xml/NamespaceBinding;Lscala/xml/NodeBuffer;)V
   6:	return
  LineNumberTable: 
   line 23: 0

  LocalVariableTable: 
   Start  Length  Slot  Name   Signature
   0      7      0    this       Lscala/xml/parsing/XhtmlParser;
   0      7      1    pscope       Lscala/xml/NamespaceBinding;
   0      7      2    ts       Lscala/xml/NodeBuffer;


public void appendText(int, scala.xml.NodeBuffer, java.lang.String);
  Code:
   Stack=4, Locals=4, Args_size=4
   0:	aload_0
   1:	iload_1
   2:	aload_2
   3:	aload_3
   4:	invokestatic	#249; //Method scala/xml/parsing/MarkupParser$class.appendText:(Lscala/xml/parsing/MarkupParser;ILscala/xml/NodeBuffer;Ljava/lang/String;)V
   7:	return
  LineNumberTable: 
   line 23: 0

  LocalVariableTable: 
   Start  Length  Slot  Name   Signature
   0      8      0    this       Lscala/xml/parsing/XhtmlParser;
   0      8      1    pos       I
   0      8      2    ts       Lscala/xml/NodeBuffer;
   0      8      3    txt       Ljava/lang/String;


public scala.xml.NodeSeq xComment();
  Code:
   Stack=1, Locals=1, Args_size=1
   0:	aload_0
   1:	invokestatic	#253; //Method scala/xml/parsing/MarkupParser$class.xComment:(Lscala/xml/parsing/MarkupParser;)Lscala/xml/NodeSeq;
   4:	areturn
  LineNumberTable: 
   line 23: 0


public java.lang.String xCharRef(scala.Function0, scala.Function0);
  Code:
   Stack=3, Locals=3, Args_size=3
   0:	aload_0
   1:	aload_1
   2:	aload_2
   3:	invokestatic	#258; //Method scala/xml/parsing/MarkupParser$class.xCharRef:(Lscala/xml/parsing/MarkupParser;Lscala/Function0;Lscala/Function0;)Ljava/lang/String;
   6:	areturn
  LineNumberTable: 
   line 23: 0

  LocalVariableTable: 
   Start  Length  Slot  Name   Signature
   0      7      0    this       Lscala/xml/parsing/XhtmlParser;
   0      7      1    ch       Lscala/Function0;
   0      7      2    nextch       Lscala/Function0;


public scala.xml.NodeSeq xCharData();
  Code:
   Stack=1, Locals=1, Args_size=1
   0:	aload_0
   1:	invokestatic	#263; //Method scala/xml/parsing/MarkupParser$class.xCharData:(Lscala/xml/parsing/MarkupParser;)Lscala/xml/NodeSeq;
   4:	areturn
  LineNumberTable: 
   line 23: 0


public void xEndTag(java.lang.String);
  Code:
   Stack=2, Locals=2, Args_size=2
   0:	aload_0
   1:	aload_1
   2:	invokestatic	#266; //Method scala/xml/parsing/MarkupParser$class.xEndTag:(Lscala/xml/parsing/MarkupParser;Ljava/lang/String;)V
   5:	return
  LineNumberTable: 
   line 23: 0

  LocalVariableTable: 
   Start  Length  Slot  Name   Signature
   0      6      0    this       Lscala/xml/parsing/XhtmlParser;
   0      6      1    n       Ljava/lang/String;


public scala.Tuple3 xTag(scala.xml.NamespaceBinding);
  Code:
   Stack=2, Locals=2, Args_size=2
   0:	aload_0
   1:	aload_1
   2:	invokestatic	#272; //Method scala/xml/parsing/MarkupParser$class.xTag:(Lscala/xml/parsing/MarkupParser;Lscala/xml/NamespaceBinding;)Lscala/Tuple3;
   5:	areturn
  LineNumberTable: 
   line 23: 0

  LocalVariableTable: 
   Start  Length  Slot  Name   Signature
   0      6      0    this       Lscala/xml/parsing/XhtmlParser;
   0      6      1    pscope       Lscala/xml/NamespaceBinding;


public java.lang.String xEntityValue();
  Code:
   Stack=1, Locals=1, Args_size=1
   0:	aload_0
   1:	invokestatic	#275; //Method scala/xml/parsing/MarkupParser$class.xEntityValue:(Lscala/xml/parsing/MarkupParser;)Ljava/lang/String;
   4:	areturn
  LineNumberTable: 
   line 23: 0


public java.lang.String xAttributeValue();
  Code:
   Stack=1, Locals=1, Args_size=1
   0:	aload_0
   1:	invokestatic	#278; //Method scala/xml/parsing/MarkupParser$class.xAttributeValue:(Lscala/xml/parsing/MarkupParser;)Ljava/lang/String;
   4:	areturn
  LineNumberTable: 
   line 23: 0


public scala.Tuple2 xAttributes(scala.xml.NamespaceBinding);
  Code:
   Stack=2, Locals=2, Args_size=2
   0:	aload_0
   1:	aload_1
   2:	invokestatic	#283; //Method scala/xml/parsing/MarkupParser$class.xAttributes:(Lscala/xml/parsing/MarkupParser;Lscala/xml/NamespaceBinding;)Lscala/Tuple2;
   5:	areturn
  LineNumberTable: 
   line 23: 0

  LocalVariableTable: 
   Start  Length  Slot  Name   Signature
   0      6      0    this       Lscala/xml/parsing/XhtmlParser;
   0      6      1    pscope       Lscala/xml/NamespaceBinding;


public void xToken(scala.collection.Seq);
  Code:
   Stack=2, Locals=2, Args_size=2
   0:	aload_0
   1:	aload_1
   2:	invokestatic	#288; //Method scala/xml/parsing/MarkupParser$class.xToken:(Lscala/xml/parsing/MarkupParser;Lscala/collection/Seq;)V
   5:	return
  LineNumberTable: 
   line 23: 0

  LocalVariableTable: 
   Start  Length  Slot  Name   Signature
   0      6      0    this       Lscala/xml/parsing/XhtmlParser;
   0      6      1    that       Lscala/collection/Seq;


public void xToken(char);
  Code:
   Stack=2, Locals=2, Args_size=2
   0:	aload_0
   1:	iload_1
   2:	invokestatic	#293; //Method scala/xml/parsing/MarkupParser$class.xToken:(Lscala/xml/parsing/MarkupParser;C)V
   5:	return
  LineNumberTable: 
   line 23: 0

  LocalVariableTable: 
   Start  Length  Slot  Name   Signature
   0      6      0    this       Lscala/xml/parsing/XhtmlParser;
   0      6      1    that       C


public void nextch();
  Code:
   Stack=1, Locals=1, Args_size=1
   0:	aload_0
   1:	invokestatic	#295; //Method scala/xml/parsing/MarkupParser$class.nextch:(Lscala/xml/parsing/MarkupParser;)V
   4:	return
  LineNumberTable: 
   line 23: 0


public scala.xml.parsing.MarkupParser initialize();
  Code:
   Stack=1, Locals=1, Args_size=1
   0:	aload_0
   1:	invokestatic	#300; //Method scala/xml/parsing/MarkupParser$class.initialize:(Lscala/xml/parsing/MarkupParser;)Lscala/xml/parsing/MarkupParser;
   4:	areturn
  LineNumberTable: 
   line 23: 0


public scala.collection.mutable.StringBuilder putChar(char);
  Code:
   Stack=2, Locals=2, Args_size=2
   0:	aload_0
   1:	iload_1
   2:	invokestatic	#305; //Method scala/xml/parsing/MarkupParser$class.putChar:(Lscala/xml/parsing/MarkupParser;C)Lscala/collection/mutable/StringBuilder;
   5:	areturn
  LineNumberTable: 
   line 23: 0

  LocalVariableTable: 
   Start  Length  Slot  Name   Signature
   0      6      0    this       Lscala/xml/parsing/XhtmlParser;
   0      6      1    c       C


public scala.xml.Document document();
  Code:
   Stack=1, Locals=1, Args_size=1
   0:	aload_0
   1:	invokestatic	#310; //Method scala/xml/parsing/MarkupParser$class.document:(Lscala/xml/parsing/MarkupParser;)Lscala/xml/Document;
   4:	areturn
  LineNumberTable: 
   line 23: 0


public scala.Tuple2 textDecl();
  Code:
   Stack=1, Locals=1, Args_size=1
   0:	aload_0
   1:	invokestatic	#315; //Method scala/xml/parsing/MarkupParser$class.textDecl:(Lscala/xml/parsing/MarkupParser;)Lscala/Tuple2;
   4:	areturn
  LineNumberTable: 
   line 23: 0


public scala.Tuple3 prolog();
  Code:
   Stack=1, Locals=1, Args_size=1
   0:	aload_0
   1:	invokestatic	#320; //Method scala/xml/parsing/MarkupParser$class.prolog:(Lscala/xml/parsing/MarkupParser;)Lscala/Tuple3;
   4:	areturn
  LineNumberTable: 
   line 23: 0


public scala.xml.MetaData xmlProcInstr();
  Code:
   Stack=1, Locals=1, Args_size=1
   0:	aload_0
   1:	invokestatic	#325; //Method scala/xml/parsing/MarkupParser$class.xmlProcInstr:(Lscala/xml/parsing/MarkupParser;)Lscala/xml/MetaData;
   4:	areturn
  LineNumberTable: 
   line 23: 0


public void scala$xml$parsing$MarkupParser$_setter_$cbuf_$eq(scala.collection.mutable.StringBuilder);
  Code:
   Stack=2, Locals=2, Args_size=2
   0:	aload_0
   1:	aload_1
   2:	putfield	#329; //Field cbuf:Lscala/collection/mutable/StringBuilder;
   5:	return
  LineNumberTable: 
   line 23: 0


public void scala$xml$parsing$MarkupParser$_setter_$scala$xml$parsing$MarkupParser$$handle_$eq(scala.xml.parsing.MarkupHandler);
  Code:
   Stack=2, Locals=2, Args_size=2
   0:	aload_0
   1:	aload_1
   2:	putfield	#333; //Field scala$xml$parsing$MarkupParser$$handle:Lscala/xml/parsing/MarkupHandler;
   5:	return
  LineNumberTable: 
   line 23: 0


public void eof_$eq(boolean);
  Code:
   Stack=2, Locals=2, Args_size=2
   0:	aload_0
   1:	iload_1
   2:	putfield	#337; //Field eof:Z
   5:	return
  LineNumberTable: 
   line 23: 0


public boolean eof();
  Code:
   Stack=1, Locals=1, Args_size=1
   0:	aload_0
   1:	getfield	#337; //Field eof:Z
   4:	ireturn
  LineNumberTable: 
   line 23: 0


public void doc_$eq(scala.xml.Document);
  Code:
   Stack=2, Locals=2, Args_size=2
   0:	aload_0
   1:	aload_1
   2:	putfield	#341; //Field doc:Lscala/xml/Document;
   5:	return
  LineNumberTable: 
   line 23: 0


public scala.xml.Document doc();
  Code:
   Stack=1, Locals=1, Args_size=1
   0:	aload_0
   1:	getfield	#341; //Field doc:Lscala/xml/Document;
   4:	areturn
  LineNumberTable: 
   line 23: 0


public void dtd_$eq(scala.xml.dtd.DTD);
  Code:
   Stack=2, Locals=2, Args_size=2
   0:	aload_0
   1:	aload_1
   2:	putfield	#345; //Field dtd:Lscala/xml/dtd/DTD;
   5:	return
  LineNumberTable: 
   line 23: 0


public scala.xml.dtd.DTD dtd();
  Code:
   Stack=1, Locals=1, Args_size=1
   0:	aload_0
   1:	getfield	#345; //Field dtd:Lscala/xml/dtd/DTD;
   4:	areturn
  LineNumberTable: 
   line 23: 0


public scala.collection.mutable.StringBuilder cbuf();
  Code:
   Stack=1, Locals=1, Args_size=1
   0:	aload_0
   1:	getfield	#329; //Field cbuf:Lscala/collection/mutable/StringBuilder;
   4:	areturn
  LineNumberTable: 
   line 23: 0


public void ch_$eq(char);
  Code:
   Stack=2, Locals=2, Args_size=2
   0:	aload_0
   1:	iload_1
   2:	putfield	#350; //Field ch:C
   5:	return
  LineNumberTable: 
   line 23: 0


public char ch();
  Code:
   Stack=1, Locals=1, Args_size=1
   0:	aload_0
   1:	getfield	#350; //Field ch:C
   4:	ireturn
  LineNumberTable: 
   line 23: 0


public void tmppos_$eq(int);
  Code:
   Stack=2, Locals=2, Args_size=2
   0:	aload_0
   1:	iload_1
   2:	putfield	#355; //Field tmppos:I
   5:	return
  LineNumberTable: 
   line 23: 0


public int tmppos();
  Code:
   Stack=1, Locals=1, Args_size=1
   0:	aload_0
   1:	getfield	#355; //Field tmppos:I
   4:	ireturn
  LineNumberTable: 
   line 23: 0


public void extIndex_$eq(int);
  Code:
   Stack=2, Locals=2, Args_size=2
   0:	aload_0
   1:	iload_1
   2:	putfield	#359; //Field extIndex:I
   5:	return
  LineNumberTable: 
   line 23: 0


public int extIndex();
  Code:
   Stack=1, Locals=1, Args_size=1
   0:	aload_0
   1:	getfield	#359; //Field extIndex:I
   4:	ireturn
  LineNumberTable: 
   line 23: 0


public void pos_$eq(int);
  Code:
   Stack=2, Locals=2, Args_size=2
   0:	aload_0
   1:	iload_1
   2:	putfield	#362; //Field pos:I
   5:	return
  LineNumberTable: 
   line 23: 0


public int pos();
  Code:
   Stack=1, Locals=1, Args_size=1
   0:	aload_0
   1:	getfield	#362; //Field pos:I
   4:	ireturn
  LineNumberTable: 
   line 23: 0


public void inpStack_$eq(scala.collection.immutable.List);
  Code:
   Stack=2, Locals=2, Args_size=2
   0:	aload_0
   1:	aload_1
   2:	putfield	#366; //Field inpStack:Lscala/collection/immutable/List;
   5:	return
  LineNumberTable: 
   line 23: 0


public scala.collection.immutable.List inpStack();
  Code:
   Stack=1, Locals=1, Args_size=1
   0:	aload_0
   1:	getfield	#366; //Field inpStack:Lscala/collection/immutable/List;
   4:	areturn
  LineNumberTable: 
   line 23: 0


public final scala.xml.parsing.MarkupHandler scala$xml$parsing$MarkupParser$$handle();
  Code:
   Stack=1, Locals=1, Args_size=1
   0:	aload_0
   1:	getfield	#333; //Field scala$xml$parsing$MarkupParser$$handle:Lscala/xml/parsing/MarkupHandler;
   4:	areturn
  LineNumberTable: 
   line 23: 0


public void curInput_$eq(scala.io.Source);
  Code:
   Stack=2, Locals=2, Args_size=2
   0:	aload_0
   1:	aload_1
   2:	putfield	#370; //Field curInput:Lscala/io/Source;
   5:	return
  LineNumberTable: 
   line 23: 0


public scala.io.Source curInput();
  Code:
   Stack=1, Locals=1, Args_size=1
   0:	aload_0
   1:	getfield	#370; //Field curInput:Lscala/io/Source;
   4:	areturn
  LineNumberTable: 
   line 23: 0


public scala.io.Source externalSource(java.lang.String);
  Code:
   Stack=2, Locals=2, Args_size=2
   0:	aload_0
   1:	aload_1
   2:	invokestatic	#375; //Method scala/xml/parsing/ExternalSources$class.externalSource:(Lscala/xml/parsing/ExternalSources;Ljava/lang/String;)Lscala/io/Source;
   5:	areturn
  LineNumberTable: 
   line 23: 0

  LocalVariableTable: 
   Start  Length  Slot  Name   Signature
   0      6      0    this       Lscala/xml/parsing/XhtmlParser;
   0      6      1    systemId       Ljava/lang/String;


}

