Compiled from "IterableMethods.scala"
public interface scala.collection.interfaces.IterableMethods extends scala.collection.interfaces.TraversableMethods
  SourceFile: "IterableMethods.scala"
  Signature: length = 0x2
   00 1F 
  ScalaSig: length = 0x4AF
   05 00 FFFFFF81 31 06 07 01 02 FFFFFF90 FFFFFF80 FFFFFF91 00 09 02 0F 49
   74 65 72 61 62 6C 65 4D 65 74 68 6F 64 73 0A 02
   03 04 01 0A 69 6E 74 65 72 66 61 63 65 73 0A 02
   05 06 01 0A 63 6F 6C 6C 65 63 74 69 6F 6E 0A 01
   07 01 05 73 63 61 6C 61 03 00 15 03 0A 19 24 13
   03 00 0B 13 10 02 0C 11 0D 01 0D 0A 02 0E 0F 01
   04 6C 61 6E 67 0A 01 10 01 04 6A 61 76 61 09 02
   12 0D 02 06 4F 62 6A 65 63 74 10 04 14 15 17 23
   0D 01 02 09 02 16 02 02 12 54 72 61 76 65 72 73
   61 62 6C 65 4D 65 74 68 6F 64 73 10 02 18 19 0C
   00 04 08 1A 00 FFFFFF84 FFFFFF80 FFFFFF84 FFFFFFC2 00 1B 02 01 41 11 02
   1C 20 10 02 1D 1E 0D 01 06 09 02 1F 06 02 07 4E
   6F 74 68 69 6E 67 10 02 1D 21 09 02 22 06 02 03
   41 6E 79 10 02 18 24 04 08 25 00 FFFFFF84 FFFFFF80 FFFFFF84 FFFFFFC2 00
   26 02 04 54 68 69 73 11 02 1C 27 12 03 28 2A 2E
   06 08 29 00 FFFFFF84 FFFFFF80 FFFFFF80 FFFFFF80 00 27 02 0C 3C 72 65 66
   69 6E 65 6D 65 6E 74 3E 10 04 2B 2C 17 23 0D 01
   04 09 02 2D 04 02 0C 49 74 65 72 61 62 6C 65 4C
   69 6B 65 10 03 2B 2F 17 09 02 30 04 02 08 49 74
   65 72 61 62 6C 65 08 05 32 00 FFFFFF86 00 33 01 08 69
   74 65 72 61 74 6F 72 15 01 34 10 03 2B 35 17 09
   02 36 04 02 08 49 74 65 72 61 74 6F 72 08 05 38
   00 FFFFFF86 00 39 01 09 64 72 6F 70 52 69 67 68 74 14
   02 2E 3A 08 05 3B 37 FFFFFFC0 00 3C 01 01 6E 10 02 1D
   3D 09 02 3E 06 02 03 49 6E 74 08 05 40 00 FFFFFF86 00
   41 01 0C 73 61 6D 65 45 6C 65 6D 65 6E 74 73 15
   02 42 4A 14 02 43 46 10 02 1D 44 09 02 45 06 02
   07 42 6F 6F 6C 65 61 6E 08 05 47 3F FFFFFFC0 00 48 01
   04 74 68 61 74 10 03 2B 2F 49 10 02 18 4A 04 08
   4B 3F FFFFFF84 FFFFFF80 FFFFFF80 FFFFFFC2 00 4C 02 01 42 11 02 17 20 08
   05 4E 00 FFFFFF86 00 4F 01 08 73 6F 72 74 57 69 74 68
   14 02 50 63 16 02 23 51 08 05 52 4D FFFFFFC0 01 53 01
   01 6D 10 03 54 57 59 0D 01 55 0A 02 56 06 01 07
   72 65 66 6C 65 63 74 09 02 58 55 02 0D 43 6C 61
   73 73 4D 61 6E 69 66 65 73 74 2A 02 17 5A 2B 01
   5B 10 02 5C 61 0D 01 5D 0A 02 5E 5F 01 09 75 6E
   63 68 65 63 6B 65 64 0A 02 60 06 01 0A 61 6E 6E
   6F 74 61 74 69 6F 6E 09 02 62 5D 02 11 75 6E 63
   68 65 63 6B 65 64 56 61 72 69 61 6E 63 65 08 05
   64 4D FFFFFFC0 00 65 01 02 6C 74 10 05 1D 66 17 17 43
   09 02 67 06 02 09 46 75 6E 63 74 69 6F 6E 32 08
   05 69 00 FFFFFF86 00 6A 01 09 74 61 6B 65 52 69 67 68
   74 14 02 2E 6B 08 05 3B 68 FFFFFFC0 00 3C 08 05 6D 00
   FFFFFF86 00 6E 01 06 7A 69 70 41 6C 6C 15 06 6F FFFFFF81 03
   FFFFFF81 00 72 14 07 70 FFFFFF81 04 FFFFFF81 06 FFFFFF81 08 16 02 71 74
   10 02 18 72 04 08 73 6C FFFFFF84 FFFFFF80 FFFFFF80 FFFFFFC2 00 1B 02 04
   54 68 61 74 08 05 75 6C FFFFFFC0 01 76 01 02 62 66 10
   05 77 7A 23 7C 71 0D 01 78 0A 02 79 04 01 07 67
   65 6E 65 72 69 63 09 02 7B 78 02 0C 43 61 6E 42
   75 69 6C 64 46 72 6F 6D 10 05 1D 7D 7F FFFFFF81 02 09
   02 7E 06 02 06 54 75 70 6C 65 32 10 03 18 FFFFFF81 00
   04 09 FFFFFF81 01 6C FFFFFF84 FFFFFF80 FFFFFF80 FFFFFFC2 00 4C 02 02 41 31 10
   03 18 FFFFFF81 03 04 08 4B 6C FFFFFF84 FFFFFF80 FFFFFF80 FFFFFFC2 00 1B 08 06
   47 6C FFFFFFC0 00 FFFFFF81 05 10 04 2B 2F FFFFFF81 02 08 06 FFFFFF81 07
   6C FFFFFFC0 00 7F 01 02 65 31 08 07 FFFFFF81 09 6C FFFFFFC0 00 FFFFFF81
   02 01 02 65 32 08 07 FFFFFF81 0B 00 FFFFFF86 00 FFFFFF81 0C 01 0C
   7A 69 70 57 69 74 68 49 6E 64 65 78 15 06 FFFFFF81 0D
   FFFFFF81 14 FFFFFF81 0F 16 04 FFFFFF81 0E FFFFFF81 10 10 03 18 FFFFFF81 0F 04
   09 73 FFFFFF81 0A FFFFFF84 FFFFFF80 FFFFFF80 FFFFFFC2 00 1B 08 07 75 FFFFFF81 0A FFFFFFC0
   01 FFFFFF81 11 10 07 77 7A 23 FFFFFF81 12 FFFFFF81 0E 10 05 1D 7D
   FFFFFF81 13 3C 10 03 18 FFFFFF81 14 04 0A FFFFFF81 01 FFFFFF81 0A FFFFFF84 FFFFFF80
   FFFFFF80 FFFFFFC2 00 4C 08 07 FFFFFF81 16 00 FFFFFF86 00 FFFFFF81 17 01 03 7A
   69 70 15 08 FFFFFF81 18 FFFFFF81 20 FFFFFF81 22 FFFFFF81 1B 14 04 FFFFFF81 19
   FFFFFF81 23 16 04 FFFFFF81 1A FFFFFF81 1C 10 03 18 FFFFFF81 1B 04 09 73
   FFFFFF81 15 FFFFFF84 FFFFFF80 FFFFFF80 FFFFFFC2 00 1B 08 07 75 FFFFFF81 15 FFFFFFC0 01 FFFFFF81
   1D 10 07 77 7A 23 FFFFFF81 1E FFFFFF81 1A 10 06 1D 7D FFFFFF81 1F
   FFFFFF81 21 10 03 18 FFFFFF81 20 04 0A FFFFFF81 01 FFFFFF81 15 FFFFFF84 FFFFFF80 FFFFFF80
   FFFFFFC2 00 4C 10 03 18 FFFFFF81 22 04 09 4B FFFFFF81 15 FFFFFF84 FFFFFF80 FFFFFF80
   FFFFFFC2 00 1B 08 07 47 FFFFFF81 15 FFFFFFC0 00 FFFFFF81 24 10 04 2B 2F
   FFFFFF81 21 08 07 FFFFFF81 26 00 FFFFFF86 20 FFFFFF81 27 01 04 76 69 65
   77 15 02 FFFFFF81 28 10 05 2B FFFFFF81 29 17 23 09 03 FFFFFF81 2A
   04 02 0C 49 74 65 72 61 62 6C 65 56 69 65 77 08
   07 FFFFFF81 26 00 FFFFFF86 20 FFFFFF81 2C 14 06 FFFFFF81 28 FFFFFF81 2D FFFFFF81 2F
   08 07 FFFFFF81 2E FFFFFF81 2B FFFFFFC0 00 3C 01 04 66 72 6F 6D 08
   07 FFFFFF81 30 FFFFFF81 2B FFFFFFC0 00 3C 01 05 75 6E 74 69 6C 
  minor version: 0
  major version: 49
  Constant pool:
Asciz	SourceFile;
Asciz	IterableMethods.scala;
Asciz	iterator;
Asciz	()Lscala/collection/Iterator;;
Asciz	()Lscala/collection/Iterator<TA;>;;
Asciz	Signature;
Asciz	dropRight;
Asciz	(I)Lscala/collection/Iterable;;
Asciz	(I)Lscala/collection/Iterable<TA;>;;
Asciz	sameElements;
Asciz	(Lscala/collection/Iterable;)Z;
Asciz	<B:Ljava/lang/Object;>(Lscala/collection/Iterable<TB;>;)Z;
Asciz	sortWith;
Asciz	(Lscala/Function2;Lscala/reflect/ClassManifest;)Lscala/collection/Iterable;;
Asciz	(Lscala/Function2<TA;TA;Ljava/lang/Boolean;>;Lscala/reflect/ClassManifest<TA;>;)TThis;;
Asciz	takeRight;
Asciz	zipAll;
Asciz	(Lscala/collection/Iterable;Ljava/lang/Object;Ljava/lang/Object;Lscala/collection/generic/CanBuildFrom;)Ljava/lang/Object;;
Asciz	<B:Ljava/lang/Object;A1:Ljava/lang/Object;That:Ljava/lang/Object;>(Lscala/collection/Iterable<TB;>;TA1;TB;Lscala/collection/generic/CanBuildFrom<TThis;Lscala/Tuple2<TA1;TB;>;TThat;>;)TThat;;
Asciz	zipWithIndex;
Asciz	(Lscala/collection/generic/CanBuildFrom;)Ljava/lang/Object;;
Asciz	<A1:Ljava/lang/Object;That:Ljava/lang/Object;>(Lscala/collection/generic/CanBuildFrom<TThis;Lscala/Tuple2<TA1;Ljava/lang/Integer;>;TThat;>;)TThat;;
Asciz	zip;
Asciz	(Lscala/collection/Iterable;Lscala/collection/generic/CanBuildFrom;)Ljava/lang/Object;;
Asciz	<A1:Ljava/lang/Object;B:Ljava/lang/Object;That:Ljava/lang/Object;>(Lscala/collection/Iterable<TB;>;Lscala/collection/generic/CanBuildFrom<TThis;Lscala/Tuple2<TA1;TB;>;TThat;>;)TThat;;
Asciz	view;
Asciz	()Lscala/collection/IterableView;;
Asciz	()Lscala/collection/IterableView<TA;TThis;>;;
Asciz	(II)Lscala/collection/IterableView;;
Asciz	(II)Lscala/collection/IterableView<TA;TThis;>;;
Asciz	<A:Ljava/lang/Object;This::Lscala/collection/IterableLike<TA;TThis;>;:Lscala/collection/Iterable<TA;>;>Ljava/lang/Object;Lscala/collection/interfaces/TraversableMethods<TA;TThis;>;;
Asciz	ScalaSig;
Asciz	scala/collection/interfaces/IterableMethods;
class	scala/collection/interfaces/IterableMethods
Asciz	java/lang/Object;
class	java/lang/Object
Asciz	scala/collection/interfaces/TraversableMethods;
class	scala/collection/interfaces/TraversableMethods

{
public abstract scala.collection.Iterator iterator();
  Signature: ()Lscala/collection/Iterator;
  Signature: length = 0x2
   00 05 

public abstract scala.collection.Iterable dropRight(int);
  Signature: (I)Lscala/collection/Iterable;
  Signature: length = 0x2
   00 09 

public abstract boolean sameElements(scala.collection.Iterable);
  Signature: (Lscala/collection/Iterable;)Z
  Signature: length = 0x2
   00 0C 

public abstract scala.collection.Iterable sortWith(scala.Function2, scala.reflect.ClassManifest);
  Signature: (Lscala/Function2;Lscala/reflect/ClassManifest;)Lscala/collection/Iterable;
  Signature: length = 0x2
   00 0F 

public abstract scala.collection.Iterable takeRight(int);
  Signature: (I)Lscala/collection/Iterable;
  Signature: length = 0x2
   00 09 

public abstract java.lang.Object zipAll(scala.collection.Iterable, java.lang.Object, java.lang.Object, scala.collection.generic.CanBuildFrom);
  Signature: (Lscala/collection/Iterable;Ljava/lang/Object;Ljava/lang/Object;Lscala/collection/generic/CanBuildFrom;)Ljava/lang/Object;
  Signature: length = 0x2
   00 13 

public abstract java.lang.Object zipWithIndex(scala.collection.generic.CanBuildFrom);
  Signature: (Lscala/collection/generic/CanBuildFrom;)Ljava/lang/Object;
  Signature: length = 0x2
   00 16 

public abstract java.lang.Object zip(scala.collection.Iterable, scala.collection.generic.CanBuildFrom);
  Signature: (Lscala/collection/Iterable;Lscala/collection/generic/CanBuildFrom;)Ljava/lang/Object;
  Signature: length = 0x2
   00 19 

public abstract scala.collection.IterableView view();
  Signature: ()Lscala/collection/IterableView;
  Signature: length = 0x2
   00 1C 

public abstract scala.collection.IterableView view(int, int);
  Signature: (II)Lscala/collection/IterableView;
  Signature: length = 0x2
   00 1E 

}

