Compiled from "TraversableMethods.scala"
public interface scala.collection.interfaces.TraversableMethods
  SourceFile: "TraversableMethods.scala"
  Signature: length = 0x2
   00 FFFFFF83 
  ScalaSig: length = 0xE2D
   05 00 FFFFFF83 63 06 07 01 02 FFFFFF90 FFFFFF80 FFFFFF91 00 09 02 12 54
   72 61 76 65 72 73 61 62 6C 65 4D 65 74 68 6F 64
   73 0A 02 03 04 01 0A 69 6E 74 65 72 66 61 63 65
   73 0A 02 05 06 01 0A 63 6F 6C 6C 65 63 74 69 6F
   6E 0A 01 07 01 05 73 63 61 6C 61 03 00 15 03 0A
   22 3F 13 02 00 0B 10 02 0C 11 0D 01 0D 0A 02 0E
   0F 01 04 6C 61 6E 67 0A 01 10 01 04 6A 61 76 61
   09 02 12 0D 02 06 4F 62 6A 65 63 74 08 05 14 00
   FFFFFF86 00 15 01 07 66 6F 72 65 61 63 68 15 02 16 2C
   14 02 17 1B 10 02 18 19 0D 01 06 09 02 1A 06 02
   04 55 6E 69 74 08 05 1C 13 FFFFFFC0 00 1D 01 01 66 10
   04 18 1E 20 2B 09 02 1F 06 02 09 46 75 6E 63 74
   69 6F 6E 31 10 02 21 22 0C 00 04 08 23 00 FFFFFF84 FFFFFF80
   FFFFFF84 FFFFFFC2 00 24 02 01 41 11 02 25 28 10 02 18 26 09
   02 27 06 02 07 4E 6F 74 68 69 6E 67 10 02 18 29
   09 02 2A 06 02 03 41 6E 79 10 02 21 2C 04 08 2D
   13 FFFFFF84 FFFFFF80 FFFFFF80 FFFFFFC2 00 24 02 01 55 08 05 2F 00 FFFFFF86 00
   30 01 07 66 6C 61 74 4D 61 70 15 03 31 4D 34 14
   02 32 4F 16 02 33 36 10 02 21 34 04 08 35 2E FFFFFF84
   FFFFFF80 FFFFFF80 FFFFFFC2 00 24 02 04 54 68 61 74 08 05 37 2E FFFFFFC0
   01 38 01 02 62 66 10 05 39 3C 3E 4C 33 0D 01 3A
   0A 02 3B 04 01 07 67 65 6E 65 72 69 63 09 02 3D
   3A 02 0C 43 61 6E 42 75 69 6C 64 46 72 6F 6D 10
   02 21 3F 04 08 40 00 FFFFFF84 FFFFFF80 FFFFFF84 FFFFFFC2 00 41 02 04 54
   68 69 73 11 02 25 42 12 03 43 45 49 06 08 44 00
   FFFFFF84 FFFFFF80 FFFFFF80 FFFFFF80 00 42 02 0C 3C 72 65 66 69 6E 65 6D
   65 6E 74 3E 10 04 46 47 20 3E 0D 01 04 09 02 48
   04 02 0F 54 72 61 76 65 72 73 61 62 6C 65 4C 69
   6B 65 10 03 46 4A 20 09 02 4B 04 02 0B 54 72 61
   76 65 72 73 61 62 6C 65 10 02 21 4D 04 08 4E 2E
   FFFFFF84 FFFFFF80 FFFFFF80 FFFFFFC2 00 24 02 01 42 08 05 1C 2E FFFFFFC0 00 50
   10 04 18 1E 20 51 10 03 46 4A 4C 08 05 53 00 FFFFFF86
   00 54 01 03 6D 61 70 15 03 55 5C 58 14 02 56 5D
   16 02 57 59 10 02 21 58 04 08 35 52 FFFFFF84 FFFFFF80 FFFFFF80 FFFFFFC2
   00 24 08 05 37 52 FFFFFFC0 01 5A 10 05 39 3C 3E 5B 57
   10 02 21 5C 04 08 4E 52 FFFFFF84 FFFFFF80 FFFFFF80 FFFFFFC2 00 24 08 05
   1C 52 FFFFFFC0 00 5E 10 04 18 1E 20 5B 08 05 60 00 FFFFFF86
   00 61 01 0A 70 61 72 74 69 61 6C 4D 61 70 15 03
   62 69 65 14 02 63 6A 16 02 64 66 10 02 21 65 04
   08 35 5F FFFFFF84 FFFFFF80 FFFFFF80 FFFFFFC2 00 24 08 05 37 5F FFFFFFC0 01 67
   10 05 39 3C 3E 68 64 10 02 21 69 04 08 4E 5F FFFFFF84
   FFFFFF80 FFFFFF80 FFFFFFC2 00 24 08 05 6B 5F FFFFFFC0 00 6C 01 02 70 66
   10 04 6D 75 20 68 0E 02 6E 73 0E 02 6F 72 0D 01
   70 0A 02 71 08 01 06 3C 72 6F 6F 74 3E 09 01 07
   09 02 74 06 01 07 70 61 63 6B 61 67 65 09 02 76
   77 02 11 24 65 71 24 67 72 65 61 74 65 72 24 71
   6D 61 72 6B 0A 02 74 06 08 05 79 00 FFFFFF86 00 7A 01
   0A 24 70 6C 75 73 24 70 6C 75 73 15 04 7B FFFFFF81 02
   7E 14 03 7C FFFFFF81 04 16 02 7D 7F 10 02 21 7E 04 08
   35 78 FFFFFF84 FFFFFF80 FFFFFF80 FFFFFFC2 00 24 08 06 37 78 FFFFFFC0 01 FFFFFF81 00
   10 06 39 3C 3E FFFFFF81 01 7D 10 03 21 FFFFFF81 02 04 09 4E
   78 FFFFFF84 FFFFFF80 FFFFFF80 FFFFFFC2 00 FFFFFF81 03 11 02 20 28 08 07 FFFFFF81 05
   78 FFFFFFC0 00 FFFFFF81 06 01 04 74 68 61 74 10 05 46 FFFFFF81 07
   FFFFFF81 01 09 03 FFFFFF81 08 04 02 08 49 74 65 72 61 74 6F
   72 08 06 79 00 FFFFFF86 00 FFFFFF81 0A 15 06 FFFFFF81 0B FFFFFF81 12 FFFFFF81
   0E 14 04 FFFFFF81 0C FFFFFF81 13 16 04 FFFFFF81 0D FFFFFF81 0F 10 03 21
   FFFFFF81 0E 04 09 35 FFFFFF81 09 FFFFFF84 FFFFFF80 FFFFFF80 FFFFFFC2 00 24 08 07 37
   FFFFFF81 09 FFFFFFC0 01 FFFFFF81 10 10 07 39 3C 3E FFFFFF81 11 FFFFFF81 0D 10
   03 21 FFFFFF81 12 04 0A 4E FFFFFF81 09 FFFFFF84 FFFFFF80 FFFFFF80 FFFFFFC2 00 FFFFFF81 03
   08 08 FFFFFF81 05 FFFFFF81 09 FFFFFFC0 00 FFFFFF81 14 10 04 46 4A FFFFFF81 11
   08 07 FFFFFF81 16 00 FFFFFF86 00 FFFFFF81 17 01 0B 63 6F 70 79 54
   6F 41 72 72 61 79 15 04 FFFFFF81 18 FFFFFF81 1F 14 05 17 FFFFFF81
   19 FFFFFF81 20 08 08 FFFFFF81 1A FFFFFF81 15 FFFFFFC0 00 FFFFFF81 1B 01 02 78
   73 10 05 18 FFFFFF81 1C FFFFFF81 1E 09 03 FFFFFF81 1D 06 02 05 41
   72 72 61 79 10 03 21 FFFFFF81 1F 04 0A 4E FFFFFF81 15 FFFFFF84 FFFFFF80
   FFFFFF80 FFFFFFC2 00 FFFFFF81 03 08 08 FFFFFF81 21 FFFFFF81 15 FFFFFFC0 00 FFFFFF81 22 01
   05 73 74 61 72 74 10 03 18 FFFFFF81 23 09 03 FFFFFF81 24 06
   02 03 49 6E 74 08 07 FFFFFF81 16 00 FFFFFF86 00 FFFFFF81 26 15 04
   FFFFFF81 27 FFFFFF81 2B 14 07 17 FFFFFF81 28 FFFFFF81 2C FFFFFF81 2D 08 08 FFFFFF81
   1A FFFFFF81 25 FFFFFFC0 00 FFFFFF81 29 10 05 18 FFFFFF81 1C FFFFFF81 2A 10 03
   21 FFFFFF81 2B 04 0A 4E FFFFFF81 25 FFFFFF84 FFFFFF80 FFFFFF80 FFFFFFC2 00 FFFFFF81 03 08
   08 FFFFFF81 21 FFFFFF81 25 FFFFFFC0 00 FFFFFF81 22 08 08 FFFFFF81 2E FFFFFF81 25 FFFFFFC0
   00 FFFFFF81 22 01 03 6C 65 6E 08 07 FFFFFF81 30 00 FFFFFF86 00 FFFFFF81
   31 01 0C 63 6F 70 79 54 6F 42 75 66 66 65 72 15
   04 FFFFFF81 32 FFFFFF81 3C 14 03 17 FFFFFF81 33 08 08 FFFFFF81 34 FFFFFF81 2F
   FFFFFFC0 00 FFFFFF81 35 01 04 64 65 73 74 10 06 FFFFFF81 36 FFFFFF81 39
   FFFFFF81 3B 0D 02 FFFFFF81 37 0A 03 FFFFFF81 38 04 01 07 6D 75 74
   61 62 6C 65 09 04 FFFFFF81 3A FFFFFF81 37 02 06 42 75 66 66
   65 72 10 03 21 FFFFFF81 3C 04 0A 4E FFFFFF81 2F FFFFFF84 FFFFFF80 FFFFFF80 FFFFFFC2
   00 FFFFFF81 03 08 07 FFFFFF81 3E 00 FFFFFF86 00 FFFFFF81 3F 01 07 74 6F
   41 72 72 61 79 15 04 FFFFFF81 40 FFFFFF81 43 16 04 FFFFFF81 41 FFFFFF81
   44 10 05 18 FFFFFF81 1C FFFFFF81 42 10 03 21 FFFFFF81 43 04 0A 4E
   FFFFFF81 3D FFFFFF84 FFFFFF80 FFFFFF80 FFFFFFC2 00 FFFFFF81 03 08 08 FFFFFF81 45 FFFFFF81 3D FFFFFFC0
   01 FFFFFF81 46 01 0A 65 76 69 64 65 6E 63 65 24 31 10
   06 FFFFFF81 47 FFFFFF81 4A FFFFFF81 42 0D 02 FFFFFF81 48 0A 03 FFFFFF81 49 06
   01 07 72 65 66 6C 65 63 74 09 04 FFFFFF81 4B FFFFFF81 48 02
   0D 43 6C 61 73 73 4D 61 6E 69 66 65 73 74 08 07
   FFFFFF81 4D 00 FFFFFF86 00 FFFFFF81 4E 01 0A 74 6F 49 74 65 72 61
   62 6C 65 15 02 FFFFFF81 4F 10 04 46 FFFFFF81 50 20 09 03 FFFFFF81
   51 04 02 08 49 74 65 72 61 62 6C 65 08 07 FFFFFF81 53
   00 FFFFFF86 00 FFFFFF81 54 01 06 74 6F 4C 69 73 74 15 02 FFFFFF81
   55 10 04 6D FFFFFF81 56 20 09 03 FFFFFF81 57 77 02 04 4C 69
   73 74 08 07 FFFFFF81 59 00 FFFFFF86 00 FFFFFF81 5A 01 05 74 6F 53
   65 71 15 02 FFFFFF81 5B 10 04 46 FFFFFF81 5C 20 09 03 FFFFFF81 5D
   04 02 03 53 65 71 08 07 FFFFFF81 5F 00 FFFFFF86 00 FFFFFF81 60 01
   05 74 6F 53 65 74 15 04 FFFFFF81 61 FFFFFF81 68 10 06 FFFFFF81 62
   FFFFFF81 65 FFFFFF81 67 0D 02 FFFFFF81 63 0A 03 FFFFFF81 64 04 01 09 69
   6D 6D 75 74 61 62 6C 65 09 04 FFFFFF81 66 FFFFFF81 63 02 03
   53 65 74 10 03 21 FFFFFF81 68 04 0A 4E FFFFFF81 5E FFFFFF84 FFFFFF80 FFFFFF80
   FFFFFFC2 00 FFFFFF81 03 08 07 FFFFFF81 6A 00 FFFFFF86 00 FFFFFF81 6B 01 08 74
   6F 53 74 72 65 61 6D 15 02 FFFFFF81 6C 10 04 6D FFFFFF81 6D
   20 09 03 FFFFFF81 6E 77 02 06 53 74 72 65 61 6D 08 07
   FFFFFF81 70 00 FFFFFF86 00 FFFFFF81 71 01 0C 74 6F 49 6E 64 65 78
   65 64 53 65 71 15 04 FFFFFF81 72 FFFFFF81 76 10 06 FFFFFF81 36 FFFFFF81
   73 FFFFFF81 75 09 04 FFFFFF81 74 FFFFFF81 37 02 0A 49 6E 64 65 78
   65 64 53 65 71 10 03 21 FFFFFF81 76 04 0A 4E FFFFFF81 6F FFFFFF84
   FFFFFF80 FFFFFF80 FFFFFFC2 00 FFFFFF81 03 08 07 FFFFFF81 78 00 FFFFFF86 00 FFFFFF81 79 01
   09 61 64 64 53 74 72 69 6E 67 14 04 FFFFFF81 7A FFFFFF81 7D
   10 03 6D FFFFFF81 7B 09 03 FFFFFF81 7C 77 02 0D 53 74 72 69
   6E 67 42 75 69 6C 64 65 72 08 08 FFFFFF81 7E FFFFFF81 77 FFFFFFC0
   00 FFFFFF81 7A 01 01 62 08 07 FFFFFF81 78 00 FFFFFF86 00 FFFFFF82 00 14
   06 FFFFFF81 7A FFFFFF82 01 FFFFFF82 02 08 08 FFFFFF81 7E FFFFFF81 7F FFFFFFC0 00 FFFFFF81
   7A 08 08 FFFFFF82 03 FFFFFF81 7F FFFFFFC0 00 FFFFFF82 04 01 03 73 65 70
   10 04 FFFFFF82 05 FFFFFF82 08 0E 03 18 FFFFFF82 06 09 03 FFFFFF82 07 06
   01 06 50 72 65 64 65 66 09 04 FFFFFF82 09 FFFFFF82 0A 02 06
   53 74 72 69 6E 67 0A 03 FFFFFF82 07 06 08 07 FFFFFF81 78 00
   FFFFFF86 00 FFFFFF82 0C 14 0A FFFFFF81 7A FFFFFF82 0D FFFFFF82 0E FFFFFF82 0F FFFFFF82 10
   08 08 FFFFFF81 7E FFFFFF82 0B FFFFFFC0 00 FFFFFF81 7A 08 08 FFFFFF81 21 FFFFFF82 0B
   FFFFFFC0 00 FFFFFF82 04 08 08 FFFFFF82 03 FFFFFF82 0B FFFFFFC0 00 FFFFFF82 04 08 08
   FFFFFF82 11 FFFFFF82 0B FFFFFFC0 00 FFFFFF82 04 01 03 65 6E 64 08 07 FFFFFF82
   13 00 FFFFFF86 00 FFFFFF82 14 01 08 6D 6B 53 74 72 69 6E 67
   14 04 FFFFFF82 04 FFFFFF82 15 08 08 FFFFFF82 03 FFFFFF82 12 FFFFFFC0 00 FFFFFF82 04
   08 07 FFFFFF82 13 00 FFFFFF86 00 FFFFFF82 17 14 08 FFFFFF82 04 FFFFFF82 18 FFFFFF82
   19 FFFFFF82 1A 08 08 FFFFFF81 21 FFFFFF82 16 FFFFFFC0 00 FFFFFF82 04 08 08 FFFFFF82
   03 FFFFFF82 16 FFFFFFC0 00 FFFFFF82 04 08 08 FFFFFF82 11 FFFFFF82 16 FFFFFFC0 00 FFFFFF82
   04 08 07 FFFFFF82 13 00 FFFFFF86 00 FFFFFF82 1C 15 02 FFFFFF82 04 08 07
   FFFFFF82 1E 00 FFFFFF86 00 FFFFFF82 1F 01 0A 24 64 69 76 24 63 6F
   6C 6F 6E 15 04 FFFFFF82 20 FFFFFF82 23 14 04 FFFFFF82 21 FFFFFF82 29 14
   04 FFFFFF82 22 FFFFFF82 24 10 03 21 FFFFFF82 23 04 09 4E FFFFFF82 1D FFFFFF84
   FFFFFF80 FFFFFF80 FFFFFFC2 00 24 08 08 FFFFFF82 25 FFFFFF82 1D FFFFFFC0 00 FFFFFF82 26 01
   02 6F 70 10 08 18 FFFFFF82 27 FFFFFF82 22 20 FFFFFF82 22 09 03 FFFFFF82
   28 06 02 09 46 75 6E 63 74 69 6F 6E 32 08 08 FFFFFF82
   2A FFFFFF82 1D FFFFFFC0 00 FFFFFF82 22 01 01 7A 08 07 FFFFFF82 2C 00 FFFFFF86
   00 FFFFFF82 2D 01 0D 24 63 6F 6C 6F 6E 24 62 73 6C 61
   73 68 15 04 FFFFFF82 2E FFFFFF82 31 14 04 FFFFFF82 2F FFFFFF82 34 14 04
   FFFFFF82 30 FFFFFF82 32 10 03 21 FFFFFF82 31 04 09 4E FFFFFF82 2B FFFFFF84 FFFFFF80
   FFFFFF80 FFFFFFC2 00 24 08 08 FFFFFF82 25 FFFFFF82 2B FFFFFFC0 00 FFFFFF82 33 10 08
   18 FFFFFF82 27 20 FFFFFF82 30 FFFFFF82 30 08 08 FFFFFF82 2A FFFFFF82 2B FFFFFFC0 00
   FFFFFF82 30 08 07 FFFFFF82 36 00 FFFFFF86 00 FFFFFF82 37 01 08 66 6F 6C
   64 4C 65 66 74 15 04 FFFFFF82 38 FFFFFF82 3B 14 04 FFFFFF82 39 FFFFFF82
   3E 14 04 FFFFFF82 3A FFFFFF82 3C 10 03 21 FFFFFF82 3B 04 09 4E FFFFFF82
   35 FFFFFF84 FFFFFF80 FFFFFF80 FFFFFFC2 00 24 08 08 FFFFFF82 25 FFFFFF82 35 FFFFFFC0 00 FFFFFF82
   3D 10 08 18 FFFFFF82 27 FFFFFF82 3A 20 FFFFFF82 3A 08 08 FFFFFF82 2A FFFFFF82
   35 FFFFFFC0 00 FFFFFF82 3A 08 07 FFFFFF82 40 00 FFFFFF86 00 FFFFFF82 41 01 09
   66 6F 6C 64 52 69 67 68 74 15 04 FFFFFF82 42 FFFFFF82 45 14
   04 FFFFFF82 43 FFFFFF82 48 14 04 FFFFFF82 44 FFFFFF82 46 10 03 21 FFFFFF82 45
   04 09 4E FFFFFF82 3F FFFFFF84 FFFFFF80 FFFFFF80 FFFFFFC2 00 24 08 08 FFFFFF82 25 FFFFFF82
   3F FFFFFFC0 00 FFFFFF82 47 10 08 18 FFFFFF82 27 20 FFFFFF82 44 FFFFFF82 44 08
   08 FFFFFF82 2A FFFFFF82 3F FFFFFFC0 00 FFFFFF82 44 08 07 FFFFFF82 4A 00 FFFFFF86 00
   FFFFFF82 4B 01 10 72 65 64 75 63 65 4C 65 66 74 4F 70
   74 69 6F 6E 15 04 FFFFFF82 4C FFFFFF82 51 14 04 FFFFFF82 4D FFFFFF82 52
   10 05 18 FFFFFF82 4E FFFFFF82 50 09 03 FFFFFF82 4F 06 02 06 4F 70
   74 69 6F 6E 10 03 21 FFFFFF82 51 04 0A 4E FFFFFF82 49 FFFFFF84 FFFFFF80
   FFFFFF80 FFFFFFC2 00 FFFFFF81 03 08 08 FFFFFF82 25 FFFFFF82 49 FFFFFFC0 00 FFFFFF82 53 10
   08 18 FFFFFF82 27 FFFFFF82 50 20 FFFFFF82 50 08 07 FFFFFF82 55 00 FFFFFF86 00
   FFFFFF82 56 01 0A 72 65 64 75 63 65 4C 65 66 74 15 04
   FFFFFF82 57 FFFFFF82 59 14 04 FFFFFF82 58 FFFFFF82 5A 10 03 21 FFFFFF82 59 04
   0A 4E FFFFFF82 54 FFFFFF84 FFFFFF80 FFFFFF80 FFFFFFC2 00 FFFFFF81 03 08 08 FFFFFF82 25 FFFFFF82
   54 FFFFFFC0 00 FFFFFF82 5B 10 08 18 FFFFFF82 27 FFFFFF82 58 20 FFFFFF82 58 08
   07 FFFFFF82 5D 00 FFFFFF86 00 FFFFFF82 5E 01 11 72 65 64 75 63 65
   52 69 67 68 74 4F 70 74 69 6F 6E 15 04 FFFFFF82 5F FFFFFF82
   62 14 04 FFFFFF82 60 FFFFFF82 63 10 05 18 FFFFFF82 4E FFFFFF82 61 10 03
   21 FFFFFF82 62 04 0A 4E FFFFFF82 5C FFFFFF84 FFFFFF80 FFFFFF80 FFFFFFC2 00 FFFFFF81 03 08
   08 FFFFFF82 25 FFFFFF82 5C FFFFFFC0 00 FFFFFF82 64 10 08 18 FFFFFF82 27 20 FFFFFF82
   61 FFFFFF82 61 08 07 FFFFFF82 66 00 FFFFFF86 00 FFFFFF82 67 01 0B 72 65
   64 75 63 65 52 69 67 68 74 15 04 FFFFFF82 68 FFFFFF82 6A 14
   04 FFFFFF82 69 FFFFFF82 6B 10 03 21 FFFFFF82 6A 04 0A 4E FFFFFF82 65 FFFFFF84
   FFFFFF80 FFFFFF80 FFFFFFC2 00 FFFFFF81 03 08 08 FFFFFF82 25 FFFFFF82 65 FFFFFFC0 00 FFFFFF82 6C
   10 08 18 FFFFFF82 27 20 FFFFFF82 69 FFFFFF82 69 08 07 FFFFFF82 6E 00 FFFFFF86
   00 FFFFFF82 6F 01 06 65 78 69 73 74 73 14 04 FFFFFF82 70 FFFFFF82
   73 10 03 18 FFFFFF82 71 09 03 FFFFFF82 72 06 02 07 42 6F 6F
   6C 65 61 6E 08 08 FFFFFF82 74 FFFFFF82 6D FFFFFFC0 00 FFFFFF82 75 01 01
   70 10 05 18 1E 20 FFFFFF82 70 08 07 FFFFFF82 77 00 FFFFFF86 00 FFFFFF82
   78 01 06 66 6F 72 61 6C 6C 14 04 FFFFFF82 70 FFFFFF82 79 08
   08 FFFFFF82 74 FFFFFF82 76 FFFFFFC0 00 FFFFFF82 75 08 07 FFFFFF82 7B 00 FFFFFF86 00
   FFFFFF82 7C 01 0F 68 61 73 44 65 66 69 6E 69 74 65 53
   69 7A 65 15 02 FFFFFF82 70 08 07 FFFFFF82 7E 00 FFFFFF86 00 FFFFFF82 7C
   01 07 69 73 45 6D 70 74 79 08 07 FFFFFF83 00 00 FFFFFF86 00
   FFFFFF82 7C 01 08 6E 6F 6E 45 6D 70 74 79 08 07 FFFFFF83 02
   00 FFFFFF86 00 FFFFFF83 03 01 04 66 69 6E 64 14 04 FFFFFF83 04 FFFFFF83
   05 10 04 18 FFFFFF82 4E 20 08 08 FFFFFF82 74 FFFFFF83 01 FFFFFFC0 00 FFFFFF82
   75 08 07 FFFFFF83 07 00 FFFFFF86 00 FFFFFF83 08 01 04 68 65 61 64
   15 01 20 08 07 FFFFFF83 0A 00 FFFFFF86 00 FFFFFF83 0B 01 0A 68 65
   61 64 4F 70 74 69 6F 6E 15 02 FFFFFF83 04 08 07 FFFFFF83 0D
   00 FFFFFF86 00 FFFFFF83 08 01 04 6C 61 73 74 08 07 FFFFFF83 0F 00
   FFFFFF86 00 FFFFFF83 0B 01 0A 6C 61 73 74 4F 70 74 69 6F 6E
   08 07 FFFFFF83 11 00 FFFFFF86 00 FFFFFF83 12 01 04 64 72 6F 70 14
   03 49 FFFFFF83 13 08 08 FFFFFF83 14 FFFFFF83 10 FFFFFFC0 00 FFFFFF81 22 01 01
   6E 08 07 FFFFFF83 16 00 FFFFFF86 00 FFFFFF83 17 01 09 64 72 6F 70
   57 68 69 6C 65 14 03 49 FFFFFF83 18 08 08 FFFFFF82 74 FFFFFF83 15
   FFFFFFC0 00 FFFFFF82 75 08 07 FFFFFF83 1A 00 FFFFFF86 00 FFFFFF83 1B 01 06 66
   69 6C 74 65 72 14 03 49 FFFFFF83 1C 08 08 FFFFFF82 74 FFFFFF83 19
   FFFFFFC0 00 FFFFFF82 75 08 07 FFFFFF83 1E 00 FFFFFF86 00 FFFFFF83 1F 01 09 66
   69 6C 74 65 72 4E 6F 74 14 03 49 FFFFFF83 20 08 08 FFFFFF82
   74 FFFFFF83 1D FFFFFFC0 00 FFFFFF82 75 08 07 FFFFFF83 22 00 FFFFFF86 00 FFFFFF83 23
   01 04 69 6E 69 74 15 01 49 08 07 FFFFFF83 25 00 FFFFFF86 00
   FFFFFF83 26 01 05 73 6C 69 63 65 14 05 49 FFFFFF83 27 FFFFFF83 29
   08 08 FFFFFF83 28 FFFFFF83 24 FFFFFFC0 00 FFFFFF81 22 01 04 66 72 6F 6D
   08 08 FFFFFF83 2A FFFFFF83 24 FFFFFFC0 00 FFFFFF81 22 01 05 75 6E 74 69
   6C 08 07 FFFFFF83 2C 00 FFFFFF86 00 FFFFFF83 23 01 04 74 61 69 6C
   08 07 FFFFFF83 2E 00 FFFFFF86 00 FFFFFF83 2F 01 04 74 61 6B 65 14
   03 49 FFFFFF83 30 08 08 FFFFFF83 14 FFFFFF83 2D FFFFFFC0 00 FFFFFF81 22 08 07
   FFFFFF83 32 00 FFFFFF86 00 FFFFFF83 33 01 09 74 61 6B 65 57 68 69
   6C 65 14 03 49 FFFFFF83 34 08 08 FFFFFF82 74 FFFFFF83 31 FFFFFFC0 00 FFFFFF82
   75 08 07 FFFFFF83 36 00 FFFFFF86 00 FFFFFF83 37 01 07 67 72 6F 75
   70 42 79 15 04 FFFFFF83 38 FFFFFF83 3D 14 04 FFFFFF83 39 FFFFFF83 3F 10
   06 46 FFFFFF83 3A FFFFFF83 3C 49 09 03 FFFFFF83 3B 04 02 03 4D 61
   70 10 03 21 FFFFFF83 3D 04 0A FFFFFF83 3E FFFFFF83 35 FFFFFF84 FFFFFF80 FFFFFF80 FFFFFFC2
   00 24 02 01 4B 08 07 1C FFFFFF83 35 FFFFFFC0 00 FFFFFF83 40 10 05
   18 1E 20 FFFFFF83 3C 08 07 FFFFFF83 42 00 FFFFFF86 00 FFFFFF83 43 01 09
   70 61 72 74 69 74 69 6F 6E 14 04 FFFFFF83 44 FFFFFF83 47 10
   05 18 FFFFFF83 45 49 49 09 03 FFFFFF83 46 06 02 06 54 75 70
   6C 65 32 08 08 FFFFFF82 74 FFFFFF83 41 FFFFFFC0 00 FFFFFF82 75 08 07 FFFFFF83
   49 00 FFFFFF86 00 FFFFFF83 4A 01 04 73 70 61 6E 14 04 FFFFFF83 44
   FFFFFF83 4B 08 08 FFFFFF82 74 FFFFFF83 48 FFFFFFC0 00 FFFFFF82 75 08 07 FFFFFF83 4D
   00 FFFFFF86 00 FFFFFF83 4E 01 07 73 70 6C 69 74 41 74 14 04
   FFFFFF83 44 FFFFFF83 4F 08 08 FFFFFF83 14 FFFFFF83 4C FFFFFFC0 00 FFFFFF81 22 08 07
   FFFFFF83 51 00 FFFFFF86 00 FFFFFF83 52 01 05 63 6F 75 6E 74 14 04
   FFFFFF81 22 FFFFFF83 53 08 08 FFFFFF82 74 FFFFFF83 50 FFFFFFC0 00 FFFFFF82 75 08 07
   FFFFFF83 55 00 FFFFFF86 00 FFFFFF83 56 01 04 73 69 7A 65 15 02 FFFFFF81
   22 08 07 FFFFFF83 58 00 FFFFFF86 00 FFFFFF82 1C 01 0C 73 74 72 69
   6E 67 50 72 65 66 69 78 08 07 FFFFFF83 5A 00 FFFFFF86 00 FFFFFF83
   5B 01 04 76 69 65 77 15 02 FFFFFF83 5C 10 05 46 FFFFFF83 5D
   20 3E 09 03 FFFFFF83 5E 04 02 0F 54 72 61 76 65 72 73
   61 62 6C 65 56 69 65 77 08 07 FFFFFF83 5A 00 FFFFFF86 00 FFFFFF83
   60 14 06 FFFFFF83 5C FFFFFF83 61 FFFFFF83 62 08 08 FFFFFF83 28 FFFFFF83 5F FFFFFFC0
   00 FFFFFF81 22 08 08 FFFFFF83 2A FFFFFF83 5F FFFFFFC0 00 FFFFFF81 22 
  minor version: 0
  major version: 49
  Constant pool:
Asciz	SourceFile;
Asciz	TraversableMethods.scala;
Asciz	view;
Asciz	(II)Lscala/collection/TraversableView;;
Asciz	(II)Lscala/collection/TraversableView<TA;TThis;>;;
Asciz	Signature;
Asciz	()Lscala/collection/TraversableView;;
Asciz	()Lscala/collection/TraversableView<TA;TThis;>;;
Asciz	stringPrefix;
Asciz	()Ljava/lang/String;;
Asciz	size;
Asciz	()I;
Asciz	count;
Asciz	(Lscala/Function1;)I;
Asciz	(Lscala/Function1<TA;Ljava/lang/Boolean;>;)I;
Asciz	splitAt;
Asciz	(I)Lscala/Tuple2;;
Asciz	(I)Lscala/Tuple2<Lscala/collection/Traversable<TA;>;Lscala/collection/Traversable<TA;>;>;;
Asciz	span;
Asciz	(Lscala/Function1;)Lscala/Tuple2;;
Asciz	(Lscala/Function1<TA;Ljava/lang/Boolean;>;)Lscala/Tuple2<Lscala/collection/Traversable<TA;>;Lscala/collection/Traversable<TA;>;>;;
Asciz	partition;
Asciz	groupBy;
Asciz	(Lscala/Function1;)Lscala/collection/Map;;
Asciz	<K:Ljava/lang/Object;>(Lscala/Function1<TA;TK;>;)Lscala/collection/Map<TK;Lscala/collection/Traversable<TA;>;>;;
Asciz	takeWhile;
Asciz	(Lscala/Function1;)Lscala/collection/Traversable;;
Asciz	(Lscala/Function1<TA;Ljava/lang/Boolean;>;)Lscala/collection/Traversable<TA;>;;
Asciz	take;
Asciz	(I)Lscala/collection/Traversable;;
Asciz	(I)Lscala/collection/Traversable<TA;>;;
Asciz	tail;
Asciz	()Lscala/collection/Traversable;;
Asciz	()Lscala/collection/Traversable<TA;>;;
Asciz	slice;
Asciz	(II)Lscala/collection/Traversable;;
Asciz	(II)Lscala/collection/Traversable<TA;>;;
Asciz	init;
Asciz	filterNot;
Asciz	filter;
Asciz	dropWhile;
Asciz	drop;
Asciz	lastOption;
Asciz	()Lscala/Option;;
Asciz	()Lscala/Option<TA;>;;
Asciz	last;
Asciz	()Ljava/lang/Object;;
Asciz	()TA;;
Asciz	headOption;
Asciz	head;
Asciz	find;
Asciz	(Lscala/Function1;)Lscala/Option;;
Asciz	(Lscala/Function1<TA;Ljava/lang/Boolean;>;)Lscala/Option<TA;>;;
Asciz	nonEmpty;
Asciz	()Z;
Asciz	isEmpty;
Asciz	hasDefiniteSize;
Asciz	forall;
Asciz	(Lscala/Function1;)Z;
Asciz	(Lscala/Function1<TA;Ljava/lang/Boolean;>;)Z;
Asciz	exists;
Asciz	reduceRight;
Asciz	(Lscala/Function2;)Ljava/lang/Object;;
Asciz	<B:Ljava/lang/Object;>(Lscala/Function2<TA;TB;TB;>;)TB;;
Asciz	reduceRightOption;
Asciz	(Lscala/Function2;)Lscala/Option;;
Asciz	<B:Ljava/lang/Object;>(Lscala/Function2<TA;TB;TB;>;)Lscala/Option<TB;>;;
Asciz	reduceLeft;
Asciz	<B:Ljava/lang/Object;>(Lscala/Function2<TB;TA;TB;>;)TB;;
Asciz	reduceLeftOption;
Asciz	<B:Ljava/lang/Object;>(Lscala/Function2<TB;TA;TB;>;)Lscala/Option<TB;>;;
Asciz	foldRight;
Asciz	(Ljava/lang/Object;Lscala/Function2;)Ljava/lang/Object;;
Asciz	<B:Ljava/lang/Object;>(TB;Lscala/Function2<TA;TB;TB;>;)TB;;
Asciz	foldLeft;
Asciz	<B:Ljava/lang/Object;>(TB;Lscala/Function2<TB;TA;TB;>;)TB;;
Asciz	$colon$bslash;
Asciz	$div$colon;
Asciz	mkString;
Asciz	(Ljava/lang/String;Ljava/lang/String;Ljava/lang/String;)Ljava/lang/String;;
Asciz	(Ljava/lang/String;)Ljava/lang/String;;
Asciz	addString;
Asciz	(Lscala/collection/mutable/StringBuilder;Ljava/lang/String;Ljava/lang/String;Ljava/lang/String;)Lscala/collection/mutable/StringBuilder;;
Asciz	(Lscala/collection/mutable/StringBuilder;Ljava/lang/String;)Lscala/collection/mutable/StringBuilder;;
Asciz	(Lscala/collection/mutable/StringBuilder;)Lscala/collection/mutable/StringBuilder;;
Asciz	toIndexedSeq;
Asciz	()Lscala/collection/mutable/IndexedSeq;;
Asciz	<B:Ljava/lang/Object;>()Lscala/collection/mutable/IndexedSeq<TB;>;;
Asciz	toStream;
Asciz	()Lscala/collection/immutable/Stream;;
Asciz	()Lscala/collection/immutable/Stream<TA;>;;
Asciz	toSet;
Asciz	()Lscala/collection/immutable/Set;;
Asciz	<B:Ljava/lang/Object;>()Lscala/collection/immutable/Set<TB;>;;
Asciz	toSeq;
Asciz	()Lscala/collection/Seq;;
Asciz	()Lscala/collection/Seq<TA;>;;
Asciz	toList;
Asciz	()Lscala/collection/immutable/List;;
Asciz	()Lscala/collection/immutable/List<TA;>;;
Asciz	toIterable;
Asciz	()Lscala/collection/Iterable;;
Asciz	()Lscala/collection/Iterable<TA;>;;
Asciz	toArray;
Asciz	(Lscala/reflect/ClassManifest;)Ljava/lang/Object;;
Asciz	<B:Ljava/lang/Object;>(Lscala/reflect/ClassManifest<TB;>;)[TB;;
Asciz	copyToBuffer;
Asciz	(Lscala/collection/mutable/Buffer;)V;
Asciz	<B:Ljava/lang/Object;>(Lscala/collection/mutable/Buffer<TB;>;)V;
Asciz	copyToArray;
Asciz	(Ljava/lang/Object;II)V;
Asciz	<B:Ljava/lang/Object;>([TB;II)V;
Asciz	(Ljava/lang/Object;I)V;
Asciz	<B:Ljava/lang/Object;>([TB;I)V;
Asciz	$plus$plus;
Asciz	(Lscala/collection/Traversable;Lscala/collection/generic/CanBuildFrom;)Ljava/lang/Object;;
Asciz	<B:Ljava/lang/Object;That:Ljava/lang/Object;>(Lscala/collection/Traversable<TB;>;Lscala/collection/generic/CanBuildFrom<TThis;TB;TThat;>;)TThat;;
Asciz	(Lscala/collection/Iterator;Lscala/collection/generic/CanBuildFrom;)Ljava/lang/Object;;
Asciz	<B:Ljava/lang/Object;That:Ljava/lang/Object;>(Lscala/collection/Iterator<TB;>;Lscala/collection/generic/CanBuildFrom<TThis;TB;TThat;>;)TThat;;
Asciz	partialMap;
Asciz	(Lscala/PartialFunction;Lscala/collection/generic/CanBuildFrom;)Ljava/lang/Object;;
Asciz	<B:Ljava/lang/Object;That:Ljava/lang/Object;>(Lscala/PartialFunction<TA;TB;>;Lscala/collection/generic/CanBuildFrom<TThis;TB;TThat;>;)TThat;;
Asciz	map;
Asciz	(Lscala/Function1;Lscala/collection/generic/CanBuildFrom;)Ljava/lang/Object;;
Asciz	<B:Ljava/lang/Object;That:Ljava/lang/Object;>(Lscala/Function1<TA;TB;>;Lscala/collection/generic/CanBuildFrom<TThis;TB;TThat;>;)TThat;;
Asciz	flatMap;
Asciz	<B:Ljava/lang/Object;That:Ljava/lang/Object;>(Lscala/Function1<TA;Lscala/collection/Traversable<TB;>;>;Lscala/collection/generic/CanBuildFrom<TThis;TB;TThat;>;)TThat;;
Asciz	foreach;
Asciz	(Lscala/Function1;)V;
Asciz	<U:Ljava/lang/Object;>(Lscala/Function1<TA;TU;>;)V;
Asciz	<A:Ljava/lang/Object;This::Lscala/collection/TraversableLike<TA;TThis;>;:Lscala/collection/Traversable<TA;>;>Ljava/lang/Object;;
Asciz	ScalaSig;
Asciz	scala/collection/interfaces/TraversableMethods;
class	scala/collection/interfaces/TraversableMethods
Asciz	java/lang/Object;
class	java/lang/Object

{
public abstract scala.collection.TraversableView view(int, int);
  Signature: (II)Lscala/collection/TraversableView;
  Signature: length = 0x2
   00 05 

public abstract scala.collection.TraversableView view();
  Signature: ()Lscala/collection/TraversableView;
  Signature: length = 0x2
   00 08 

public abstract java.lang.String stringPrefix();
  Signature: ()Ljava/lang/String;

public abstract int size();
  Signature: ()I

public abstract int count(scala.Function1);
  Signature: (Lscala/Function1;)I
  Signature: length = 0x2
   00 0F 

public abstract scala.Tuple2 splitAt(int);
  Signature: (I)Lscala/Tuple2;
  Signature: length = 0x2
   00 12 

public abstract scala.Tuple2 span(scala.Function1);
  Signature: (Lscala/Function1;)Lscala/Tuple2;
  Signature: length = 0x2
   00 15 

public abstract scala.Tuple2 partition(scala.Function1);
  Signature: (Lscala/Function1;)Lscala/Tuple2;
  Signature: length = 0x2
   00 15 

public abstract scala.collection.Map groupBy(scala.Function1);
  Signature: (Lscala/Function1;)Lscala/collection/Map;
  Signature: length = 0x2
   00 19 

public abstract scala.collection.Traversable takeWhile(scala.Function1);
  Signature: (Lscala/Function1;)Lscala/collection/Traversable;
  Signature: length = 0x2
   00 1C 

public abstract scala.collection.Traversable take(int);
  Signature: (I)Lscala/collection/Traversable;
  Signature: length = 0x2
   00 1F 

public abstract scala.collection.Traversable tail();
  Signature: ()Lscala/collection/Traversable;
  Signature: length = 0x2
   00 22 

public abstract scala.collection.Traversable slice(int, int);
  Signature: (II)Lscala/collection/Traversable;
  Signature: length = 0x2
   00 25 

public abstract scala.collection.Traversable init();
  Signature: ()Lscala/collection/Traversable;
  Signature: length = 0x2
   00 22 

public abstract scala.collection.Traversable filterNot(scala.Function1);
  Signature: (Lscala/Function1;)Lscala/collection/Traversable;
  Signature: length = 0x2
   00 1C 

public abstract scala.collection.Traversable filter(scala.Function1);
  Signature: (Lscala/Function1;)Lscala/collection/Traversable;
  Signature: length = 0x2
   00 1C 

public abstract scala.collection.Traversable dropWhile(scala.Function1);
  Signature: (Lscala/Function1;)Lscala/collection/Traversable;
  Signature: length = 0x2
   00 1C 

public abstract scala.collection.Traversable drop(int);
  Signature: (I)Lscala/collection/Traversable;
  Signature: length = 0x2
   00 1F 

public abstract scala.Option lastOption();
  Signature: ()Lscala/Option;
  Signature: length = 0x2
   00 2D 

public abstract java.lang.Object last();
  Signature: ()Ljava/lang/Object;
  Signature: length = 0x2
   00 30 

public abstract scala.Option headOption();
  Signature: ()Lscala/Option;
  Signature: length = 0x2
   00 2D 

public abstract java.lang.Object head();
  Signature: ()Ljava/lang/Object;
  Signature: length = 0x2
   00 30 

public abstract scala.Option find(scala.Function1);
  Signature: (Lscala/Function1;)Lscala/Option;
  Signature: length = 0x2
   00 35 

public abstract boolean nonEmpty();
  Signature: ()Z

public abstract boolean isEmpty();
  Signature: ()Z

public abstract boolean hasDefiniteSize();
  Signature: ()Z

public abstract boolean forall(scala.Function1);
  Signature: (Lscala/Function1;)Z
  Signature: length = 0x2
   00 3C 

public abstract boolean exists(scala.Function1);
  Signature: (Lscala/Function1;)Z
  Signature: length = 0x2
   00 3C 

public abstract java.lang.Object reduceRight(scala.Function2);
  Signature: (Lscala/Function2;)Ljava/lang/Object;
  Signature: length = 0x2
   00 40 

public abstract scala.Option reduceRightOption(scala.Function2);
  Signature: (Lscala/Function2;)Lscala/Option;
  Signature: length = 0x2
   00 43 

public abstract java.lang.Object reduceLeft(scala.Function2);
  Signature: (Lscala/Function2;)Ljava/lang/Object;
  Signature: length = 0x2
   00 45 

public abstract scala.Option reduceLeftOption(scala.Function2);
  Signature: (Lscala/Function2;)Lscala/Option;
  Signature: length = 0x2
   00 47 

public abstract java.lang.Object foldRight(java.lang.Object, scala.Function2);
  Signature: (Ljava/lang/Object;Lscala/Function2;)Ljava/lang/Object;
  Signature: length = 0x2
   00 4A 

public abstract java.lang.Object foldLeft(java.lang.Object, scala.Function2);
  Signature: (Ljava/lang/Object;Lscala/Function2;)Ljava/lang/Object;
  Signature: length = 0x2
   00 4C 

public abstract java.lang.Object $colon$bslash(java.lang.Object, scala.Function2);
  Signature: (Ljava/lang/Object;Lscala/Function2;)Ljava/lang/Object;
  Signature: length = 0x2
   00 4A 

public abstract java.lang.Object $div$colon(java.lang.Object, scala.Function2);
  Signature: (Ljava/lang/Object;Lscala/Function2;)Ljava/lang/Object;
  Signature: length = 0x2
   00 4C 

public abstract java.lang.String mkString();
  Signature: ()Ljava/lang/String;

public abstract java.lang.String mkString(java.lang.String, java.lang.String, java.lang.String);
  Signature: (Ljava/lang/String;Ljava/lang/String;Ljava/lang/String;)Ljava/lang/String;

public abstract java.lang.String mkString(java.lang.String);
  Signature: (Ljava/lang/String;)Ljava/lang/String;

public abstract scala.collection.mutable.StringBuilder addString(scala.collection.mutable.StringBuilder, java.lang.String, java.lang.String, java.lang.String);
  Signature: (Lscala/collection/mutable/StringBuilder;Ljava/lang/String;Ljava/lang/String;Ljava/lang/String;)Lscala/collection/mutable/StringBuilder;

public abstract scala.collection.mutable.StringBuilder addString(scala.collection.mutable.StringBuilder, java.lang.String);
  Signature: (Lscala/collection/mutable/StringBuilder;Ljava/lang/String;)Lscala/collection/mutable/StringBuilder;

public abstract scala.collection.mutable.StringBuilder addString(scala.collection.mutable.StringBuilder);
  Signature: (Lscala/collection/mutable/StringBuilder;)Lscala/collection/mutable/StringBuilder;

public abstract scala.collection.mutable.IndexedSeq toIndexedSeq();
  Signature: ()Lscala/collection/mutable/IndexedSeq;
  Signature: length = 0x2
   00 58 

public abstract scala.collection.immutable.Stream toStream();
  Signature: ()Lscala/collection/immutable/Stream;
  Signature: length = 0x2
   00 5B 

public abstract scala.collection.immutable.Set toSet();
  Signature: ()Lscala/collection/immutable/Set;
  Signature: length = 0x2
   00 5E 

public abstract scala.collection.Seq toSeq();
  Signature: ()Lscala/collection/Seq;
  Signature: length = 0x2
   00 61 

public abstract scala.collection.immutable.List toList();
  Signature: ()Lscala/collection/immutable/List;
  Signature: length = 0x2
   00 64 

public abstract scala.collection.Iterable toIterable();
  Signature: ()Lscala/collection/Iterable;
  Signature: length = 0x2
   00 67 

public abstract java.lang.Object toArray(scala.reflect.ClassManifest);
  Signature: (Lscala/reflect/ClassManifest;)Ljava/lang/Object;
  Signature: length = 0x2
   00 6A 

public abstract void copyToBuffer(scala.collection.mutable.Buffer);
  Signature: (Lscala/collection/mutable/Buffer;)V
  Signature: length = 0x2
   00 6D 

public abstract void copyToArray(java.lang.Object, int, int);
  Signature: (Ljava/lang/Object;II)V
  Signature: length = 0x2
   00 70 

public abstract void copyToArray(java.lang.Object, int);
  Signature: (Ljava/lang/Object;I)V
  Signature: length = 0x2
   00 72 

public abstract java.lang.Object $plus$plus(scala.collection.Traversable, scala.collection.generic.CanBuildFrom);
  Signature: (Lscala/collection/Traversable;Lscala/collection/generic/CanBuildFrom;)Ljava/lang/Object;
  Signature: length = 0x2
   00 75 

public abstract java.lang.Object $plus$plus(scala.collection.Iterator, scala.collection.generic.CanBuildFrom);
  Signature: (Lscala/collection/Iterator;Lscala/collection/generic/CanBuildFrom;)Ljava/lang/Object;
  Signature: length = 0x2
   00 77 

public abstract java.lang.Object partialMap(scala.PartialFunction, scala.collection.generic.CanBuildFrom);
  Signature: (Lscala/PartialFunction;Lscala/collection/generic/CanBuildFrom;)Ljava/lang/Object;
  Signature: length = 0x2
   00 7A 

public abstract java.lang.Object map(scala.Function1, scala.collection.generic.CanBuildFrom);
  Signature: (Lscala/Function1;Lscala/collection/generic/CanBuildFrom;)Ljava/lang/Object;
  Signature: length = 0x2
   00 7D 

public abstract java.lang.Object flatMap(scala.Function1, scala.collection.generic.CanBuildFrom);
  Signature: (Lscala/Function1;Lscala/collection/generic/CanBuildFrom;)Ljava/lang/Object;
  Signature: length = 0x2
   00 7F 

public abstract void foreach(scala.Function1);
  Signature: (Lscala/Function1;)V
  Signature: length = 0x2
   00 FFFFFF82 

}

