Compiled from "IntMap.scala"
public abstract class scala.collection.immutable.IntMap extends java.lang.Object implements scala.collection.immutable.Map,scala.collection.immutable.MapLike,scala.ScalaObject
  SourceFile: "IntMap.scala"
  Signature: length = 0x2
   04 35 
  ScalaSig: length = 0x1031
   05 00 FFFFFF84 0C 07 05 01 02 FFFFFF88 02 09 01 06 49 6E 74
   4D 61 70 0A 02 03 04 01 09 69 6D 6D 75 74 61 62
   6C 65 0A 02 05 06 01 0A 63 6F 6C 6C 65 63 74 69
   6F 6E 0A 01 07 01 05 73 63 61 6C 61 03 00 10 02
   0A 0B 0D 01 02 06 08 0C 02 FFFFFF84 FFFFFF80 FFFFFF80 FFFFFF88 02 0D 02
   06 49 6E 74 4D 61 70 13 03 0B 0E 16 10 02 0F 14
   0D 01 10 0A 02 11 12 01 04 6C 61 6E 67 0A 01 13
   01 04 6A 61 76 61 09 02 15 10 02 06 4F 62 6A 65
   63 74 10 02 17 18 0D 01 06 09 02 19 06 02 0B 53
   63 61 6C 61 4F 62 6A 65 63 74 08 05 1B 0B FFFFFF84 00
   1C 01 06 3C 69 6E 69 74 3E 14 01 09 08 05 1E 0B
   FFFFFF84 00 1F 01 05 65 6D 70 74 79 15 03 20 FFFFFF83 3A 10
   04 0A 21 FFFFFF83 39 06 05 0C 02 FFFFFF81 10 22 15 02 23 2C
   13 05 21 0E 24 35 16 10 04 0A 25 27 2A 09 02 26
   02 02 03 4D 61 70 10 02 17 28 09 02 29 06 02 03
   49 6E 74 10 02 2B 2C 0C 00 04 08 2D 21 FFFFFF84 FFFFFF80 FFFFFF84
   FFFFFFC2 00 2E 02 01 54 11 02 2F 32 10 02 17 30 09 02
   31 06 02 07 4E 6F 74 68 69 6E 67 10 02 17 33 09
   02 34 06 02 03 41 6E 79 10 05 0A 36 27 2A 38 09
   02 37 02 02 07 4D 61 70 4C 69 6B 65 10 03 0A 21
   2A 08 05 1B 21 FFFFFF84 00 3A 14 01 38 08 05 1E 21 FFFFFF84
   20 3C 15 01 38 08 05 3E 21 FFFFFF84 20 3F 01 06 74 6F
   4C 69 73 74 15 01 40 10 03 0A 41 43 09 02 42 02
   02 04 4C 69 73 74 10 04 17 44 27 2A 09 02 45 06
   02 06 54 75 70 6C 65 32 08 05 47 21 FFFFFF84 00 48 01
   08 69 74 65 72 61 74 6F 72 15 01 49 10 03 4A 4B
   43 0D 01 04 09 02 4C 04 02 08 49 74 65 72 61 74
   6F 72 08 05 4E 21 FFFFFF84 22 4F 01 07 66 6F 72 65 61
   63 68 15 02 50 5A 14 02 51 54 10 02 17 52 09 02
   53 06 02 04 55 6E 69 74 08 05 55 4D FFFFFFC0 00 56 01
   01 66 10 04 17 57 43 59 09 02 58 06 02 09 46 75
   6E 63 74 69 6F 6E 31 10 02 2B 5A 04 08 5B 4D FFFFFF84
   FFFFFF80 FFFFFF80 FFFFFFC2 00 2E 02 01 55 08 05 5D 21 FFFFFF84 20 5E 01
   0C 6B 65 79 73 49 74 65 72 61 74 6F 72 15 01 5F
   10 03 4A 4B 27 08 05 61 21 FFFFFF84 02 62 01 0A 66 6F
   72 65 61 63 68 4B 65 79 14 02 51 63 08 05 55 60
   FFFFFFC0 00 64 10 04 17 57 27 51 08 05 66 21 FFFFFF84 20 67
   01 0E 76 61 6C 75 65 73 49 74 65 72 61 74 6F 72
   15 01 68 10 03 4A 4B 2A 08 05 6A 21 FFFFFF84 02 6B 01
   0C 66 6F 72 65 61 63 68 56 61 6C 75 65 14 02 51
   6C 08 05 55 69 FFFFFFC0 00 6D 10 04 17 57 2A 51 08 05
   6F 21 FFFFFF84 20 70 01 0C 73 74 72 69 6E 67 50 72 65
   66 69 78 15 01 71 10 02 0F 72 09 02 73 10 02 06
   53 74 72 69 6E 67 08 05 75 21 FFFFFF84 20 76 01 07 69
   73 45 6D 70 74 79 15 01 77 10 02 17 78 09 02 79
   06 02 07 42 6F 6F 6C 65 61 6E 08 05 7B 21 FFFFFF84 20
   7C 01 06 66 69 6C 74 65 72 14 02 38 7D 08 05 55
   7A FFFFFFC0 00 7E 10 04 17 57 43 77 08 07 FFFFFF81 00 21 FFFFFF84
   00 FFFFFF81 01 01 09 74 72 61 6E 73 66 6F 72 6D 15 04
   FFFFFF81 02 FFFFFF81 05 14 04 FFFFFF81 03 FFFFFF81 07 10 04 0A 21 FFFFFF81 04
   10 03 2B FFFFFF81 05 04 09 FFFFFF81 06 7F FFFFFF84 FFFFFF80 FFFFFF80 FFFFFFC2 00 2E
   02 01 53 08 06 55 7F FFFFFFC0 00 FFFFFF81 08 10 07 17 FFFFFF81 09
   27 2A FFFFFF81 04 09 03 FFFFFF81 0A 06 02 09 46 75 6E 63 74
   69 6F 6E 32 08 07 FFFFFF81 0C 21 FFFFFF84 22 FFFFFF81 0D 01 04 73
   69 7A 65 15 01 27 08 07 FFFFFF81 0F 21 FFFFFF84 02 FFFFFF81 10 01
   03 67 65 74 14 04 FFFFFF81 11 FFFFFF81 14 10 04 17 FFFFFF81 12 2A
   09 03 FFFFFF81 13 06 02 06 4F 70 74 69 6F 6E 08 07 FFFFFF81
   15 FFFFFF81 0E FFFFFFC0 00 27 01 03 6B 65 79 08 07 FFFFFF81 17 21
   FFFFFF84 22 FFFFFF81 18 01 09 67 65 74 4F 72 45 6C 73 65 15
   04 FFFFFF81 19 FFFFFF81 1B 14 06 FFFFFF81 1A FFFFFF81 1D FFFFFF81 1E 10 03 2B
   FFFFFF81 1B 04 0B FFFFFF81 06 FFFFFF81 16 FFFFFF84 FFFFFF80 FFFFFF80 FFFFFFC2 00 FFFFFF81 1C 11
   02 2A 32 08 07 FFFFFF81 15 FFFFFF81 16 FFFFFFC0 00 27 08 09 FFFFFF81 1F
   FFFFFF81 16 FFFFFF84 FFFFFFC0 00 FFFFFF81 20 01 07 64 65 66 61 75 6C 74
   10 05 17 FFFFFF81 21 FFFFFF81 1A 09 03 FFFFFF81 22 06 02 08 3C 62
   79 6E 61 6D 65 3E 08 07 FFFFFF81 24 21 FFFFFF84 22 FFFFFF81 25 01
   05 61 70 70 6C 79 14 03 2A FFFFFF81 26 08 07 FFFFFF81 15 FFFFFF81
   23 FFFFFFC0 00 27 08 07 FFFFFF81 28 21 FFFFFF84 00 FFFFFF81 29 01 05 24
   70 6C 75 73 15 04 FFFFFF81 2A FFFFFF81 2D 14 04 FFFFFF81 2B FFFFFF81 2E
   10 04 0A 21 FFFFFF81 2C 10 03 2B FFFFFF81 2D 04 0B FFFFFF81 06 FFFFFF81
   27 FFFFFF84 FFFFFF80 FFFFFF80 FFFFFFC2 00 FFFFFF81 1C 08 08 FFFFFF81 2F FFFFFF81 27 FFFFFFC0 00
   FFFFFF81 30 01 02 6B 76 10 05 17 44 27 FFFFFF81 2C 08 07 FFFFFF81
   32 21 FFFFFF84 20 FFFFFF81 33 01 07 75 70 64 61 74 65 64 15
   04 FFFFFF81 34 FFFFFF81 37 14 06 FFFFFF81 35 FFFFFF81 38 FFFFFF81 39 10 04 0A
   21 FFFFFF81 36 10 03 2B FFFFFF81 37 04 0B FFFFFF81 06 FFFFFF81 31 FFFFFF84 FFFFFF80
   FFFFFF80 FFFFFFC2 00 FFFFFF81 1C 08 07 FFFFFF81 15 FFFFFF81 31 FFFFFFC0 00 27 08 08
   FFFFFF81 3A FFFFFF81 31 FFFFFFC0 00 FFFFFF81 36 01 05 76 61 6C 75 65 08
   07 FFFFFF81 3C 21 FFFFFF84 20 FFFFFF81 3D 01 06 75 70 64 61 74 65
   15 04 FFFFFF81 3E FFFFFF81 41 14 06 FFFFFF81 3F FFFFFF81 42 FFFFFF81 43 10 04
   0A 21 FFFFFF81 40 10 03 2B FFFFFF81 41 04 0B FFFFFF81 06 FFFFFF81 3B FFFFFF84
   FFFFFF80 FFFFFF80 FFFFFFC2 00 FFFFFF81 1C 08 07 FFFFFF81 15 FFFFFF81 3B FFFFFFC0 00 27 08
   08 FFFFFF81 3A FFFFFF81 3B FFFFFFC0 00 FFFFFF81 40 28 06 FFFFFF81 3B FFFFFF81 45 FFFFFF81
   48 10 03 17 FFFFFF81 46 09 03 FFFFFF81 47 06 02 0A 64 65 70
   72 65 63 61 74 65 64 21 02 FFFFFF81 49 01 15 75 73 65
   20 60 75 70 64 61 74 65 64 27 20 69 6E 73 74 65
   61 64 08 07 FFFFFF81 4B 21 FFFFFF84 00 FFFFFF81 4C 01 0A 75 70 64
   61 74 65 57 69 74 68 15 04 FFFFFF81 4D FFFFFF81 50 14 08 FFFFFF81
   4E FFFFFF81 51 FFFFFF81 52 FFFFFF81 53 10 04 0A 21 FFFFFF81 4F 10 03 2B
   FFFFFF81 50 04 0B FFFFFF81 06 FFFFFF81 4A FFFFFF84 FFFFFF80 FFFFFF80 FFFFFFC2 00 FFFFFF81 1C 08
   07 FFFFFF81 15 FFFFFF81 4A FFFFFFC0 00 27 08 08 FFFFFF81 3A FFFFFF81 4A FFFFFFC0 00
   FFFFFF81 4F 08 07 55 FFFFFF81 4A FFFFFFC0 00 FFFFFF81 54 10 08 17 FFFFFF81 09
   2A FFFFFF81 4F FFFFFF81 4F 08 07 FFFFFF81 56 21 FFFFFF84 00 FFFFFF81 57 01 06
   24 6D 69 6E 75 73 14 03 38 FFFFFF81 58 08 07 FFFFFF81 15 FFFFFF81
   55 FFFFFFC0 00 27 08 07 FFFFFF81 5A 21 FFFFFF84 00 FFFFFF81 5B 01 0E 6D
   6F 64 69 66 79 4F 72 52 65 6D 6F 76 65 15 04 FFFFFF81
   5C FFFFFF81 5F 14 04 FFFFFF81 5D FFFFFF81 60 10 04 0A 21 FFFFFF81 5E 10
   03 2B FFFFFF81 5F 04 0A FFFFFF81 06 FFFFFF81 59 FFFFFF84 FFFFFF80 FFFFFF80 FFFFFFC2 00 2E
   08 07 55 FFFFFF81 59 FFFFFFC0 00 FFFFFF81 61 10 07 17 FFFFFF81 09 27 2A
   FFFFFF81 62 10 05 17 FFFFFF81 12 FFFFFF81 5E 08 07 FFFFFF81 64 21 FFFFFF84 00
   FFFFFF81 65 01 09 75 6E 69 6F 6E 57 69 74 68 15 04 FFFFFF81
   66 FFFFFF81 69 14 06 FFFFFF81 67 FFFFFF81 6A FFFFFF81 6C 10 04 0A 21 FFFFFF81
   68 10 03 2B FFFFFF81 69 04 0B FFFFFF81 06 FFFFFF81 63 FFFFFF84 FFFFFF80 FFFFFF80 FFFFFFC2
   00 FFFFFF81 1C 08 08 FFFFFF81 6B FFFFFF81 63 FFFFFFC0 00 FFFFFF81 67 01 04 74
   68 61 74 08 07 55 FFFFFF81 63 FFFFFFC0 00 FFFFFF81 6D 10 0A 17 FFFFFF81
   6E 27 FFFFFF81 68 FFFFFF81 68 FFFFFF81 68 09 03 FFFFFF81 6F 06 02 09 46
   75 6E 63 74 69 6F 6E 33 08 07 FFFFFF81 71 21 FFFFFF84 00 FFFFFF81
   72 01 10 69 6E 74 65 72 73 65 63 74 69 6F 6E 57
   69 74 68 15 06 FFFFFF81 73 FFFFFF81 7B FFFFFF81 76 14 06 FFFFFF81 74 FFFFFF81
   78 FFFFFF81 7C 10 04 0A 21 FFFFFF81 75 10 03 2B FFFFFF81 76 04 0A
   FFFFFF81 77 FFFFFF81 70 FFFFFF84 FFFFFF80 FFFFFF80 FFFFFFC2 00 2E 02 01 52 08 08 FFFFFF81
   6B FFFFFF81 70 FFFFFFC0 00 FFFFFF81 79 10 04 0A 21 FFFFFF81 7A 10 03 2B
   FFFFFF81 7B 04 0A FFFFFF81 06 FFFFFF81 70 FFFFFF84 FFFFFF80 FFFFFF80 FFFFFFC2 00 2E 08 07
   55 FFFFFF81 70 FFFFFFC0 00 FFFFFF81 7D 10 09 17 FFFFFF81 6E 27 2A FFFFFF81 7A
   FFFFFF81 75 08 07 FFFFFF81 7F 21 FFFFFF84 00 FFFFFF82 00 01 0C 69 6E 74
   65 72 73 65 63 74 69 6F 6E 15 04 FFFFFF82 01 FFFFFF82 05 14
   03 38 FFFFFF82 02 08 08 FFFFFF81 6B FFFFFF81 7E FFFFFFC0 00 FFFFFF82 03 10 04
   0A 21 FFFFFF82 04 10 03 2B FFFFFF82 05 04 0A FFFFFF81 77 FFFFFF81 7E FFFFFF84
   FFFFFF80 FFFFFF80 FFFFFFC2 00 2E 08 07 FFFFFF82 07 21 FFFFFF84 00 FFFFFF82 08 01 0A
   24 70 6C 75 73 24 70 6C 75 73 15 04 FFFFFF82 09 FFFFFF82 0C
   14 04 FFFFFF82 0A FFFFFF82 0D 10 04 0A 21 FFFFFF82 0B 10 03 2B FFFFFF82
   0C 04 0B FFFFFF81 06 FFFFFF82 06 FFFFFF84 FFFFFF80 FFFFFF80 FFFFFFC2 00 FFFFFF81 1C 08 08
   FFFFFF81 6B FFFFFF82 06 FFFFFFC0 00 FFFFFF82 0A 08 07 FFFFFF82 0F 21 FFFFFF84 02 FFFFFF81
   0D 01 08 66 69 72 73 74 4B 65 79 08 07 FFFFFF82 11 21
   FFFFFF84 02 FFFFFF81 0D 01 07 6C 61 73 74 4B 65 79 29 07 21
   FFFFFF82 13 FFFFFF82 32 FFFFFF82 71 06 0B FFFFFF82 14 0B FFFFFF84 FFFFFF80 FFFFFF80 FFFFFF88 42
   02 FFFFFF82 15 02 03 4E 69 6C 13 07 FFFFFF82 13 FFFFFF82 16 16 FFFFFF82
   17 10 03 0A 21 2F 10 03 17 FFFFFF82 18 09 03 FFFFFF82 19 06
   02 07 50 72 6F 64 75 63 74 08 07 1B FFFFFF82 13 FFFFFF84 00
   FFFFFF82 1B 14 02 FFFFFF82 1C 10 04 FFFFFF82 1D FFFFFF82 13 0D 01 0B 08
   08 FFFFFF82 1F FFFFFF82 13 FFFFFF84 20 FFFFFF82 20 01 06 65 71 75 61 6C
   73 14 03 77 FFFFFF82 21 08 07 FFFFFF81 6B FFFFFF82 1E FFFFFFC0 00 32 08
   0A FFFFFF82 23 FFFFFF82 13 FFFFFF84 FFFFFF80 FFFFFF80 FFFFFF84 20 70 01 0D 70 72 6F
   64 75 63 74 50 72 65 66 69 78 08 0B FFFFFF82 25 FFFFFF82 13
   FFFFFF84 FFFFFF80 FFFFFF80 FFFFFF84 20 FFFFFF81 0D 01 0C 70 72 6F 64 75 63 74
   41 72 69 74 79 08 0B FFFFFF82 27 FFFFFF82 13 FFFFFF84 FFFFFF80 FFFFFF80 FFFFFF84 20
   FFFFFF82 28 01 0E 70 72 6F 64 75 63 74 45 6C 65 6D 65
   6E 74 14 03 32 FFFFFF82 29 08 09 FFFFFF82 2A FFFFFF82 26 FFFFFF81 FFFFFF80 FFFFFFC0
   00 27 01 03 78 24 31 08 0B FFFFFF82 2C FFFFFF82 13 FFFFFF84 FFFFFF80 FFFFFF80
   FFFFFF84 08 FFFFFF82 2D 01 0B 72 65 61 64 52 65 73 6F 6C 76
   65 14 01 0E 28 04 FFFFFF82 13 FFFFFF82 2F 10 03 17 FFFFFF82 30 09
   03 FFFFFF82 31 06 02 0C 73 65 72 69 61 6C 69 7A 61 62
   6C 65 06 07 FFFFFF82 33 0B 40 02 FFFFFF82 34 02 03 54 69 70
   15 04 FFFFFF82 35 FFFFFF82 38 13 07 FFFFFF82 32 FFFFFF82 36 16 FFFFFF82 17 10
   04 0A 21 FFFFFF82 37 10 03 2B FFFFFF82 38 04 09 2D FFFFFF82 32 FFFFFF84
   FFFFFF80 FFFFFF84 FFFFFFC2 00 2E 08 0B FFFFFF81 15 FFFFFF82 32 FFFFFF82 FFFFFFCA FFFFFF80 FFFFFF84 00
   FFFFFF81 0D 08 0A FFFFFF82 3B FFFFFF82 32 FFFFFF82 FFFFFF88 FFFFFFA0 FFFFFF80 04 27 01 04
   6B 65 79 20 08 0B FFFFFF81 3A FFFFFF82 32 FFFFFF82 FFFFFFCA FFFFFF80 FFFFFF84 00 FFFFFF82
   3D 15 02 FFFFFF82 37 08 0B FFFFFF82 3F FFFFFF82 32 FFFFFF82 FFFFFF88 FFFFFFA0 FFFFFF80 04
   FFFFFF82 37 01 06 76 61 6C 75 65 20 08 07 1B FFFFFF82 32 FFFFFF84
   00 FFFFFF82 41 14 06 FFFFFF82 42 FFFFFF82 43 FFFFFF82 44 10 06 FFFFFF82 1D FFFFFF82
   32 FFFFFF82 37 08 07 FFFFFF81 15 FFFFFF82 40 FFFFFFC0 00 27 08 08 FFFFFF81 3A
   FFFFFF82 40 FFFFFFC0 00 FFFFFF82 37 08 08 FFFFFF82 46 FFFFFF82 32 FFFFFF84 00 FFFFFF82 47
   01 09 77 69 74 68 56 61 6C 75 65 15 04 FFFFFF82 48 FFFFFF82
   4C 14 04 FFFFFF82 49 FFFFFF82 4D 10 06 FFFFFF82 4A FFFFFF82 32 FFFFFF82 4B 0E
   02 0A 00 10 03 2B FFFFFF82 4C 04 0A FFFFFF81 06 FFFFFF82 45 FFFFFF84 FFFFFF80
   FFFFFF80 FFFFFFC2 00 2E 08 08 FFFFFF82 4E FFFFFF82 45 FFFFFFC0 00 FFFFFF82 4B 01 01
   73 08 0A FFFFFF82 50 FFFFFF82 32 FFFFFF81 FFFFFF80 FFFFFF84 00 FFFFFF82 51 01 04 63
   6F 70 79 15 04 FFFFFF82 52 FFFFFF82 55 14 06 FFFFFF82 53 FFFFFF82 56 FFFFFF82
   65 10 06 FFFFFF82 1D FFFFFF82 32 FFFFFF82 54 10 03 2B FFFFFF82 55 04 09
   2D FFFFFF82 4F FFFFFF84 FFFFFF80 FFFFFF80 FFFFFFC2 00 2E 08 0B FFFFFF82 57 FFFFFF81 15 FFFFFF82
   4F FFFFFF90 FFFFFF80 FFFFFFC0 00 27 08 0A FFFFFF82 58 FFFFFF82 32 FFFFFF91 FFFFFF80 FFFFFF84 00
   FFFFFF82 59 01 0E 63 6F 70 79 24 64 65 66 61 75 6C 74
   24 31 15 04 FFFFFF82 5A FFFFFF82 64 2A 03 27 FFFFFF82 5B 2B 02 FFFFFF82
   5C 10 04 FFFFFF82 5D FFFFFF82 62 0D 02 FFFFFF82 5E 0A 04 FFFFFF82 5F FFFFFF82
   60 01 09 75 6E 63 68 65 63 6B 65 64 0A 03 FFFFFF82 61
   06 01 0A 61 6E 6E 6F 74 61 74 69 6F 6E 09 04 FFFFFF82
   63 FFFFFF82 5E 02 11 75 6E 63 68 65 63 6B 65 64 56 61
   72 69 61 6E 63 65 04 09 2D FFFFFF82 57 FFFFFF84 FFFFFF80 FFFFFF80 FFFFFFC2 00
   2E 08 0C FFFFFF82 66 FFFFFF81 3A FFFFFF82 4F FFFFFF90 FFFFFF80 FFFFFFC0 00 FFFFFF82 54 08
   0A FFFFFF82 67 FFFFFF82 32 FFFFFF91 FFFFFF80 FFFFFF84 00 FFFFFF82 68 01 0E 63 6F 70
   79 24 64 65 66 61 75 6C 74 24 32 15 04 FFFFFF82 69 FFFFFF82
   6A 2A 04 FFFFFF82 37 FFFFFF82 5B 04 09 2D FFFFFF82 66 FFFFFF84 FFFFFF80 FFFFFF80 FFFFFFC2
   00 2E 08 0A FFFFFF82 23 FFFFFF82 32 FFFFFF84 FFFFFF80 FFFFFF80 FFFFFF84 20 70 08 0B
   FFFFFF82 25 FFFFFF82 32 FFFFFF84 FFFFFF80 FFFFFF80 FFFFFF84 20 FFFFFF81 0D 08 0B FFFFFF82 27 FFFFFF82
   32 FFFFFF84 FFFFFF80 FFFFFF80 FFFFFF84 20 FFFFFF82 6E 14 03 32 FFFFFF82 6F 08 09 FFFFFF82
   2A FFFFFF82 6D FFFFFF81 FFFFFF80 FFFFFFC0 00 27 28 04 FFFFFF82 32 FFFFFF82 2F 06 07
   FFFFFF82 72 0B 40 02 FFFFFF82 73 02 03 42 69 6E 15 04 FFFFFF82 74
   FFFFFF82 77 13 07 FFFFFF82 71 FFFFFF82 75 16 FFFFFF82 17 10 04 0A 21 FFFFFF82
   76 10 03 2B FFFFFF82 77 04 09 2D FFFFFF82 71 FFFFFF84 FFFFFF80 FFFFFF84 FFFFFFC2 00
   2E 08 0B FFFFFF82 79 FFFFFF82 71 FFFFFF82 FFFFFFCA FFFFFF80 FFFFFF84 00 FFFFFF81 0D 01 06
   70 72 65 66 69 78 08 0A FFFFFF82 7B FFFFFF82 71 FFFFFF82 FFFFFF88 FFFFFFA0 FFFFFF80
   04 27 01 07 70 72 65 66 69 78 20 08 0B FFFFFF82 7D FFFFFF82
   71 FFFFFF82 FFFFFFCA FFFFFF80 FFFFFF84 00 FFFFFF81 0D 01 04 6D 61 73 6B 08 0A
   FFFFFF82 7F FFFFFF82 71 FFFFFF82 FFFFFF88 FFFFFFA0 FFFFFF80 04 27 01 05 6D 61 73 6B
   20 08 0B FFFFFF83 01 FFFFFF82 71 FFFFFF82 FFFFFFCA FFFFFF80 FFFFFF84 00 FFFFFF83 02 01 04
   6C 65 66 74 15 02 FFFFFF82 75 08 0B FFFFFF83 04 FFFFFF82 71 FFFFFF82 FFFFFF88
   FFFFFFA0 FFFFFF80 04 FFFFFF82 75 01 05 6C 65 66 74 20 08 0B FFFFFF83 06
   FFFFFF82 71 FFFFFF82 FFFFFFCA FFFFFF80 FFFFFF84 00 FFFFFF83 02 01 05 72 69 67 68 74
   08 0B FFFFFF83 08 FFFFFF82 71 FFFFFF82 FFFFFF88 FFFFFFA0 FFFFFF80 04 FFFFFF82 75 01 06 72
   69 67 68 74 20 08 07 1B FFFFFF82 71 FFFFFF84 00 FFFFFF83 0A 14 0A
   FFFFFF83 0B FFFFFF83 0C FFFFFF83 0D FFFFFF83 0E FFFFFF83 0F 10 06 FFFFFF82 1D FFFFFF82 71
   FFFFFF82 76 08 07 FFFFFF82 79 FFFFFF83 09 FFFFFFC0 00 27 08 07 FFFFFF82 7D FFFFFF83
   09 FFFFFFC0 00 27 08 08 FFFFFF83 01 FFFFFF83 09 FFFFFFC0 00 FFFFFF82 75 08 08
   FFFFFF83 06 FFFFFF83 09 FFFFFFC0 00 FFFFFF82 75 08 08 FFFFFF83 11 FFFFFF82 71 FFFFFF84 00
   FFFFFF83 12 01 03 62 69 6E 15 04 FFFFFF83 13 FFFFFF83 16 14 06 FFFFFF83
   14 FFFFFF83 17 FFFFFF83 18 10 04 0A 21 FFFFFF83 15 10 03 2B FFFFFF83 16
   04 0A FFFFFF81 06 FFFFFF83 10 FFFFFF84 FFFFFF80 FFFFFF80 FFFFFFC2 00 2E 08 08 FFFFFF83 01
   FFFFFF83 10 FFFFFFC0 00 FFFFFF83 14 08 08 FFFFFF83 06 FFFFFF83 10 FFFFFFC0 00 FFFFFF83 14
   08 0A FFFFFF82 50 FFFFFF82 71 FFFFFF81 FFFFFF80 FFFFFF84 00 FFFFFF83 1A 15 04 FFFFFF83 1B
   FFFFFF83 1E 14 0A FFFFFF83 1C FFFFFF83 1F FFFFFF83 23 FFFFFF83 27 FFFFFF83 2E 10 06
   FFFFFF82 1D FFFFFF82 71 FFFFFF83 1D 10 03 2B FFFFFF83 1E 04 09 2D FFFFFF83 19
   FFFFFF84 FFFFFF80 FFFFFF80 FFFFFFC2 00 2E 08 0B FFFFFF83 20 FFFFFF82 79 FFFFFF83 19 FFFFFF90 FFFFFF80
   FFFFFFC0 00 27 08 0A FFFFFF82 58 FFFFFF82 71 FFFFFF91 FFFFFF80 FFFFFF84 00 FFFFFF83 21 15
   04 FFFFFF82 5A FFFFFF83 22 04 09 2D FFFFFF83 20 FFFFFF84 FFFFFF80 FFFFFF80 FFFFFFC2 00 2E
   08 0B FFFFFF83 24 FFFFFF82 7D FFFFFF83 19 FFFFFF90 FFFFFF80 FFFFFFC0 00 27 08 0A FFFFFF82
   67 FFFFFF82 71 FFFFFF91 FFFFFF80 FFFFFF84 00 FFFFFF83 25 15 04 FFFFFF82 5A FFFFFF83 26 04
   09 2D FFFFFF83 24 FFFFFF84 FFFFFF80 FFFFFF80 FFFFFFC2 00 2E 08 0C FFFFFF83 29 FFFFFF83 01
   FFFFFF83 19 FFFFFF90 FFFFFF80 FFFFFFC0 00 FFFFFF83 28 10 04 0A 21 FFFFFF83 1D 08 0A
   FFFFFF83 2A FFFFFF82 71 FFFFFF91 FFFFFF80 FFFFFF84 00 FFFFFF83 2B 01 0E 63 6F 70 79
   24 64 65 66 61 75 6C 74 24 33 15 04 FFFFFF83 2C FFFFFF83 2D
   2A 04 FFFFFF82 75 FFFFFF82 5B 04 09 2D FFFFFF83 29 FFFFFF84 FFFFFF80 FFFFFF80 FFFFFFC2 00
   2E 08 0C FFFFFF83 2F FFFFFF83 06 FFFFFF83 19 FFFFFF90 FFFFFF80 FFFFFFC0 00 FFFFFF83 28 08
   0A FFFFFF83 30 FFFFFF82 71 FFFFFF91 FFFFFF80 FFFFFF84 00 FFFFFF83 31 01 0E 63 6F 70
   79 24 64 65 66 61 75 6C 74 24 34 15 04 FFFFFF83 2C FFFFFF83
   32 04 09 2D FFFFFF83 2F FFFFFF84 FFFFFF80 FFFFFF80 FFFFFFC2 00 2E 08 0A FFFFFF82 23
   FFFFFF82 71 FFFFFF84 FFFFFF80 FFFFFF80 FFFFFF84 20 70 08 0B FFFFFF82 25 FFFFFF82 71 FFFFFF84 FFFFFF80
   FFFFFF80 FFFFFF84 20 FFFFFF81 0D 08 0B FFFFFF82 27 FFFFFF82 71 FFFFFF84 FFFFFF80 FFFFFF80 FFFFFF84 20
   FFFFFF83 36 14 03 32 FFFFFF83 37 08 09 FFFFFF82 2A FFFFFF83 35 FFFFFF81 FFFFFF80 FFFFFFC0
   00 27 28 04 FFFFFF82 71 FFFFFF82 2F 10 03 2B FFFFFF83 3A 04 08 2D
   1D FFFFFF84 FFFFFF80 FFFFFF80 FFFFFFC2 00 2E 08 07 FFFFFF83 3C 0B FFFFFF84 00 FFFFFF83 3D
   01 09 73 69 6E 67 6C 65 74 6F 6E 15 04 FFFFFF83 3E FFFFFF83
   41 14 06 FFFFFF83 3F FFFFFF83 42 FFFFFF83 43 10 04 0A 21 FFFFFF83 40 10
   03 2B FFFFFF83 41 04 09 2D FFFFFF83 3B FFFFFF84 FFFFFF80 FFFFFF80 FFFFFFC2 00 2E 08
   07 FFFFFF81 15 FFFFFF83 3B FFFFFFC0 00 27 08 08 FFFFFF81 3A FFFFFF83 3B FFFFFFC0 00
   FFFFFF83 40 08 07 FFFFFF81 24 0B FFFFFF84 00 FFFFFF83 45 15 04 FFFFFF83 46 FFFFFF83
   49 14 04 FFFFFF83 47 FFFFFF83 4A 10 04 0A 21 FFFFFF83 48 10 03 2B
   FFFFFF83 49 04 09 2D FFFFFF83 44 FFFFFF84 FFFFFF80 FFFFFF80 FFFFFFC2 00 2E 08 08 FFFFFF83
   4B FFFFFF83 44 FFFFFFC0 00 FFFFFF83 4C 01 05 65 6C 65 6D 73 10 05
   17 FFFFFF83 4D FFFFFF83 4F 09 03 FFFFFF83 4E 06 02 0A 3C 72 65 70
   65 61 74 65 64 3E 10 05 17 44 27 FFFFFF83 48 07 08 FFFFFF83
   51 0B FFFFFF88 42 02 FFFFFF82 1C 01 03 4E 69 6C 07 0A FFFFFF83 53
   0B FFFFFF81 FFFFFF80 FFFFFF88 02 02 FFFFFF83 54 01 03 54 69 70 10 04 FFFFFF82
   1D FFFFFF83 55 06 0B FFFFFF82 33 0B FFFFFF84 FFFFFF81 FFFFFF80 FFFFFF88 02 02 FFFFFF83 56
   13 04 FFFFFF83 55 0E 16 08 07 1B FFFFFF83 55 FFFFFF84 00 FFFFFF83 58 14
   02 FFFFFF83 54 08 0A FFFFFF81 24 FFFFFF83 55 FFFFFF81 FFFFFF80 FFFFFF84 40 FFFFFF83 5A 15
   04 FFFFFF83 5B FFFFFF83 5E 14 06 FFFFFF83 5C FFFFFF83 5F FFFFFF83 60 10 06 FFFFFF82
   1D FFFFFF82 32 FFFFFF83 5D 10 03 2B FFFFFF83 5E 04 09 2D FFFFFF83 59 FFFFFF84
   FFFFFF80 FFFFFF80 FFFFFFC2 00 2E 08 07 FFFFFF81 15 FFFFFF83 59 FFFFFFC0 00 27 08 08
   FFFFFF81 3A FFFFFF83 59 FFFFFFC0 00 FFFFFF83 5D 08 0A FFFFFF83 62 FFFFFF83 55 FFFFFF81 FFFFFF80
   FFFFFF84 40 FFFFFF83 63 01 07 75 6E 61 70 70 6C 79 15 04 FFFFFF83
   64 FFFFFF83 6A 14 04 FFFFFF83 65 FFFFFF83 6B 10 05 17 FFFFFF83 66 FFFFFF83 68
   09 03 FFFFFF83 67 06 02 04 53 6F 6D 65 10 05 17 44 27
   FFFFFF83 69 10 03 2B FFFFFF83 6A 04 09 2D FFFFFF83 61 FFFFFF84 FFFFFF80 FFFFFF80 FFFFFFC2
   00 2E 08 08 FFFFFF83 6C FFFFFF83 61 FFFFFFC0 00 FFFFFF83 6D 01 03 78 24
   30 10 06 FFFFFF82 1D FFFFFF82 32 FFFFFF83 69 07 0A FFFFFF83 6F 0B FFFFFF81 FFFFFF80
   FFFFFF88 02 02 FFFFFF83 70 01 03 42 69 6E 10 04 FFFFFF82 1D FFFFFF83 71
   06 0B FFFFFF82 72 0B FFFFFF84 FFFFFF81 FFFFFF80 FFFFFF88 02 02 FFFFFF83 72 13 04 FFFFFF83
   71 0E 16 08 07 1B FFFFFF83 71 FFFFFF84 00 FFFFFF83 74 14 02 FFFFFF83 70
   08 0A FFFFFF81 24 FFFFFF83 71 FFFFFF81 FFFFFF80 FFFFFF84 40 FFFFFF83 76 15 04 FFFFFF83 77
   FFFFFF83 7A 14 0A FFFFFF83 78 FFFFFF83 7B FFFFFF83 7C FFFFFF83 7D FFFFFF83 7F 10 06
   FFFFFF82 1D FFFFFF82 71 FFFFFF83 79 10 03 2B FFFFFF83 7A 04 09 2D FFFFFF83 75
   FFFFFF84 FFFFFF80 FFFFFF80 FFFFFFC2 00 2E 08 07 FFFFFF82 79 FFFFFF83 75 FFFFFFC0 00 27 08
   07 FFFFFF82 7D FFFFFF83 75 FFFFFFC0 00 27 08 08 FFFFFF83 01 FFFFFF83 75 FFFFFFC0 00
   FFFFFF83 7E 10 04 0A 21 FFFFFF83 79 08 08 FFFFFF83 06 FFFFFF83 75 FFFFFFC0 00
   FFFFFF83 7E 08 0A FFFFFF83 62 FFFFFF83 71 FFFFFF81 FFFFFF80 FFFFFF84 40 FFFFFF84 01 15 04
   FFFFFF84 02 FFFFFF84 09 14 04 FFFFFF84 03 FFFFFF84 0A 10 05 17 FFFFFF83 66 FFFFFF84
   04 10 09 17 FFFFFF84 05 27 27 FFFFFF84 07 FFFFFF84 07 09 03 FFFFFF84 06
   06 02 06 54 75 70 6C 65 34 10 04 0A 21 FFFFFF84 08 10
   03 2B FFFFFF84 09 04 09 2D FFFFFF84 00 FFFFFF84 FFFFFF80 FFFFFF80 FFFFFFC2 00 2E 08
   08 FFFFFF83 6C FFFFFF84 00 FFFFFFC0 00 FFFFFF84 0B 10 06 FFFFFF82 1D FFFFFF82 71 FFFFFF84
   08 
  InnerClass: 
   public Tip=class scala/collection/immutable/IntMap$Tip of class scala/collection/immutable/IntMap
   public Bin=class scala/collection/immutable/IntMap$Bin of class scala/collection/immutable/IntMap
   public final $anonfun$apply$1=class scala/collection/immutable/IntMap$$anonfun$apply$1 of class scala/collection/immutable/IntMap
   public final $anonfun$toList$1=class scala/collection/immutable/IntMap$$anonfun$toList$1 of class scala/collection/immutable/IntMap
   public WithFilter=class scala/collection/TraversableLike$WithFilter of class scala/collection/TraversableLike
   public final $anonfun$unionWith$2=class scala/collection/immutable/IntMap$$anonfun$unionWith$2 of class scala/collection/immutable/IntMap
   public final $anonfun$unionWith$1=class scala/collection/immutable/IntMap$$anonfun$unionWith$1 of class scala/collection/immutable/IntMap
   public final $anonfun$$plus$plus$1=class scala/collection/immutable/IntMap$$anonfun$$plus$plus$1 of class scala/collection/immutable/IntMap
   public final $anonfun$intersection$1=class scala/collection/immutable/IntMap$$anonfun$intersection$1 of class scala/collection/immutable/IntMap
  minor version: 0
  major version: 49
  Constant pool:
Asciz	SourceFile;
Asciz	IntMap.scala;
Asciz	singleton;
Asciz	(ILjava/lang/Object;)Lscala/collection/immutable/IntMap;;
Asciz	Code;
Asciz	scala/collection/immutable/IntMap$;
class	scala/collection/immutable/IntMap$
Asciz	MODULE$;
Asciz	Lscala/collection/immutable/IntMap$;;
NameAndType	MODULE$:Lscala/collection/immutable/IntMap$;
Field	scala/collection/immutable/IntMap$.MODULE$:Lscala/collection/immutable/IntMap$;
NameAndType	singleton:(ILjava/lang/Object;)Lscala/collection/immutable/IntMap;
Method	scala/collection/immutable/IntMap$.singleton:(ILjava/lang/Object;)Lscala/collection/immutable/IntMap;
Asciz	<T:Ljava/lang/Object;>(ITT;)Lscala/collection/immutable/IntMap<TT;>;;
Asciz	Signature;
Asciz	<init>;
Asciz	()V;
Asciz	LineNumberTable;
Asciz	java/lang/Object;
class	java/lang/Object
NameAndType	"<init>":()V
Method	java/lang/Object."<init>":()V
Asciz	scala/collection/TraversableLike$class;
class	scala/collection/TraversableLike$class
Asciz	$init$;
Asciz	(Lscala/collection/TraversableLike;)V;
NameAndType	$init$:(Lscala/collection/TraversableLike;)V
Method	scala/collection/TraversableLike$class.$init$:(Lscala/collection/TraversableLike;)V
Asciz	scala/collection/generic/GenericTraversableTemplate$class;
class	scala/collection/generic/GenericTraversableTemplate$class
Asciz	(Lscala/collection/generic/GenericTraversableTemplate;)V;
NameAndType	$init$:(Lscala/collection/generic/GenericTraversableTemplate;)V
Method	scala/collection/generic/GenericTraversableTemplate$class.$init$:(Lscala/collection/generic/GenericTraversableTemplate;)V
Asciz	scala/collection/Traversable$class;
class	scala/collection/Traversable$class
Asciz	(Lscala/collection/Traversable;)V;
NameAndType	$init$:(Lscala/collection/Traversable;)V
Method	scala/collection/Traversable$class.$init$:(Lscala/collection/Traversable;)V
Asciz	scala/collection/immutable/Traversable$class;
class	scala/collection/immutable/Traversable$class
Asciz	(Lscala/collection/immutable/Traversable;)V;
NameAndType	$init$:(Lscala/collection/immutable/Traversable;)V
Method	scala/collection/immutable/Traversable$class.$init$:(Lscala/collection/immutable/Traversable;)V
Asciz	scala/collection/IterableLike$class;
class	scala/collection/IterableLike$class
Asciz	(Lscala/collection/IterableLike;)V;
NameAndType	$init$:(Lscala/collection/IterableLike;)V
Method	scala/collection/IterableLike$class.$init$:(Lscala/collection/IterableLike;)V
Asciz	scala/collection/Iterable$class;
class	scala/collection/Iterable$class
Asciz	(Lscala/collection/Iterable;)V;
NameAndType	$init$:(Lscala/collection/Iterable;)V
Method	scala/collection/Iterable$class.$init$:(Lscala/collection/Iterable;)V
Asciz	scala/collection/immutable/Iterable$class;
class	scala/collection/immutable/Iterable$class
Asciz	(Lscala/collection/immutable/Iterable;)V;
NameAndType	$init$:(Lscala/collection/immutable/Iterable;)V
Method	scala/collection/immutable/Iterable$class.$init$:(Lscala/collection/immutable/Iterable;)V
Asciz	scala/Function1$class;
class	scala/Function1$class
Asciz	(Lscala/Function1;)V;
NameAndType	$init$:(Lscala/Function1;)V
Method	scala/Function1$class.$init$:(Lscala/Function1;)V
Asciz	scala/PartialFunction$class;
class	scala/PartialFunction$class
Asciz	(Lscala/PartialFunction;)V;
NameAndType	$init$:(Lscala/PartialFunction;)V
Method	scala/PartialFunction$class.$init$:(Lscala/PartialFunction;)V
Asciz	scala/collection/generic/Subtractable$class;
class	scala/collection/generic/Subtractable$class
Asciz	(Lscala/collection/generic/Subtractable;)V;
NameAndType	$init$:(Lscala/collection/generic/Subtractable;)V
Method	scala/collection/generic/Subtractable$class.$init$:(Lscala/collection/generic/Subtractable;)V
Asciz	scala/collection/MapLike$class;
class	scala/collection/MapLike$class
Asciz	(Lscala/collection/MapLike;)V;
NameAndType	$init$:(Lscala/collection/MapLike;)V
Method	scala/collection/MapLike$class.$init$:(Lscala/collection/MapLike;)V
Asciz	scala/collection/Map$class;
class	scala/collection/Map$class
Asciz	(Lscala/collection/Map;)V;
NameAndType	$init$:(Lscala/collection/Map;)V
Method	scala/collection/Map$class.$init$:(Lscala/collection/Map;)V
Asciz	scala/collection/immutable/MapLike$class;
class	scala/collection/immutable/MapLike$class
Asciz	(Lscala/collection/immutable/MapLike;)V;
NameAndType	$init$:(Lscala/collection/immutable/MapLike;)V
Method	scala/collection/immutable/MapLike$class.$init$:(Lscala/collection/immutable/MapLike;)V
Asciz	scala/collection/immutable/Map$class;
class	scala/collection/immutable/Map$class
Asciz	(Lscala/collection/immutable/Map;)V;
NameAndType	$init$:(Lscala/collection/immutable/Map;)V
Method	scala/collection/immutable/Map$class.$init$:(Lscala/collection/immutable/Map;)V
Asciz	empty;
Asciz	()Lscala/collection/immutable/Map;;
Asciz	scala/collection/immutable/IntMap;
class	scala/collection/immutable/IntMap
Asciz	()Lscala/collection/immutable/IntMap;;
NameAndType	empty:()Lscala/collection/immutable/IntMap;
Method	scala/collection/immutable/IntMap.empty:()Lscala/collection/immutable/IntMap;
Asciz	()Lscala/collection/Map;;
Asciz	filter;
Asciz	(Lscala/Function1;)Ljava/lang/Object;;
Asciz	(Lscala/Function1;)Lscala/collection/immutable/IntMap;;
NameAndType	filter:(Lscala/Function1;)Lscala/collection/immutable/IntMap;
Method	scala/collection/immutable/IntMap.filter:(Lscala/Function1;)Lscala/collection/immutable/IntMap;
Asciz	this;
Asciz	Lscala/collection/immutable/IntMap;;
Asciz	p;
Asciz	Lscala/Function1;;
Asciz	LocalVariableTable;
Asciz	get;
Asciz	(Ljava/lang/Object;)Lscala/Option;;
Asciz	scala/runtime/BoxesRunTime;
class	scala/runtime/BoxesRunTime
Asciz	unboxToInt;
Asciz	(Ljava/lang/Object;)I;
NameAndType	unboxToInt:(Ljava/lang/Object;)I
Method	scala/runtime/BoxesRunTime.unboxToInt:(Ljava/lang/Object;)I
Asciz	(I)Lscala/Option;;
NameAndType	get:(I)Lscala/Option;
Method	scala/collection/immutable/IntMap.get:(I)Lscala/Option;
Asciz	key;
Asciz	Ljava/lang/Object;;
Asciz	getOrElse;
Asciz	(Ljava/lang/Object;Lscala/Function0;)Ljava/lang/Object;;
Asciz	(ILscala/Function0;)Ljava/lang/Object;;
NameAndType	getOrElse:(ILscala/Function0;)Ljava/lang/Object;
Method	scala/collection/immutable/IntMap.getOrElse:(ILscala/Function0;)Ljava/lang/Object;
Asciz	default;
Asciz	Lscala/Function0;;
Asciz	apply;
Asciz	(Ljava/lang/Object;)Ljava/lang/Object;;
Asciz	(I)Ljava/lang/Object;;
NameAndType	apply:(I)Ljava/lang/Object;
Method	scala/collection/immutable/IntMap.apply:(I)Ljava/lang/Object;
Asciz	$plus;
Asciz	(Lscala/Tuple2;)Lscala/collection/immutable/Map;;
Asciz	(Lscala/Tuple2;)Lscala/collection/immutable/IntMap;;
NameAndType	$plus:(Lscala/Tuple2;)Lscala/collection/immutable/IntMap;
Method	scala/collection/immutable/IntMap.$plus:(Lscala/Tuple2;)Lscala/collection/immutable/IntMap;
Asciz	kv;
Asciz	Lscala/Tuple2;;
Asciz	(Lscala/Tuple2;)Lscala/collection/Map;;
Asciz	updated;
Asciz	(Ljava/lang/Object;Ljava/lang/Object;)Lscala/collection/immutable/Map;;
NameAndType	updated:(ILjava/lang/Object;)Lscala/collection/immutable/IntMap;
Method	scala/collection/immutable/IntMap.updated:(ILjava/lang/Object;)Lscala/collection/immutable/IntMap;
Asciz	value;
Asciz	(Ljava/lang/Object;Ljava/lang/Object;)Lscala/collection/Map;;
Asciz	update;
NameAndType	update:(ILjava/lang/Object;)Lscala/collection/immutable/IntMap;
Method	scala/collection/immutable/IntMap.update:(ILjava/lang/Object;)Lscala/collection/immutable/IntMap;
Asciz	$minus;
Asciz	(Ljava/lang/Object;)Lscala/collection/Map;;
Asciz	(I)Lscala/collection/immutable/IntMap;;
NameAndType	$minus:(I)Lscala/collection/immutable/IntMap;
Method	scala/collection/immutable/IntMap.$minus:(I)Lscala/collection/immutable/IntMap;
Asciz	(Ljava/lang/Object;)Lscala/collection/generic/Subtractable;;
Asciz	elem;
Asciz	(Lscala/Tuple2;Lscala/Tuple2;Lscala/collection/Seq;)Lscala/collection/Map;;
Asciz	scala/collection/immutable/MapLike;
class	scala/collection/immutable/MapLike
Asciz	(Lscala/Tuple2;Lscala/Tuple2;Lscala/collection/Seq;)Lscala/collection/immutable/Map;;
NameAndType	$plus:(Lscala/Tuple2;Lscala/Tuple2;Lscala/collection/Seq;)Lscala/collection/immutable/Map;
InterfaceMethod	scala/collection/immutable/MapLike.$plus:(Lscala/Tuple2;Lscala/Tuple2;Lscala/collection/Seq;)Lscala/collection/immutable/Map;
Asciz	kv1;
Asciz	kv2;
Asciz	kvs;
Asciz	Lscala/collection/Seq;;
Asciz	$plus$plus;
Asciz	(Lscala/collection/Traversable;)Lscala/collection/Map;;
Asciz	(Lscala/collection/Traversable;)Lscala/collection/immutable/Map;;
NameAndType	$plus$plus:(Lscala/collection/Traversable;)Lscala/collection/immutable/Map;
InterfaceMethod	scala/collection/immutable/MapLike.$plus$plus:(Lscala/collection/Traversable;)Lscala/collection/immutable/Map;
Asciz	Lscala/collection/Traversable;;
Asciz	(Lscala/collection/Iterator;)Lscala/collection/Map;;
Asciz	(Lscala/collection/Iterator;)Lscala/collection/immutable/Map;;
NameAndType	$plus$plus:(Lscala/collection/Iterator;)Lscala/collection/immutable/Map;
InterfaceMethod	scala/collection/immutable/MapLike.$plus$plus:(Lscala/collection/Iterator;)Lscala/collection/immutable/Map;
Asciz	iter;
Asciz	Lscala/collection/Iterator;;
Asciz	filterNot;
Asciz	(Lscala/Function1;)Lscala/collection/immutable/Map;;
NameAndType	filterNot:(Lscala/Function1;)Lscala/collection/immutable/Map;
InterfaceMethod	scala/collection/immutable/MapLike.filterNot:(Lscala/Function1;)Lscala/collection/immutable/Map;
Asciz	andThen;
Asciz	(Lscala/Function1;)Lscala/Function1;;
Asciz	scala/PartialFunction;
class	scala/PartialFunction
Asciz	(Lscala/Function1;)Lscala/PartialFunction;;
NameAndType	andThen:(Lscala/Function1;)Lscala/PartialFunction;
InterfaceMethod	scala/PartialFunction.andThen:(Lscala/Function1;)Lscala/PartialFunction;
Asciz	g;
Asciz	thisCollection;
Asciz	()Lscala/collection/Traversable;;
Asciz	scala/collection/IterableLike;
class	scala/collection/IterableLike
Asciz	()Lscala/collection/Iterable;;
NameAndType	thisCollection:()Lscala/collection/Iterable;
InterfaceMethod	scala/collection/IterableLike.thisCollection:()Lscala/collection/Iterable;
Asciz	toCollection;
Asciz	(Ljava/lang/Object;)Lscala/collection/Traversable;;
Asciz	(Ljava/lang/Object;)Lscala/collection/Iterable;;
NameAndType	toCollection:(Ljava/lang/Object;)Lscala/collection/Iterable;
InterfaceMethod	scala/collection/IterableLike.toCollection:(Ljava/lang/Object;)Lscala/collection/Iterable;
Asciz	repr;
Asciz	view;
Asciz	()Lscala/collection/TraversableView;;
Asciz	()Lscala/collection/IterableView;;
NameAndType	view:()Lscala/collection/IterableView;
InterfaceMethod	scala/collection/IterableLike.view:()Lscala/collection/IterableView;
Asciz	(II)Lscala/collection/TraversableView;;
Asciz	(II)Lscala/collection/IterableView;;
NameAndType	view:(II)Lscala/collection/IterableView;
InterfaceMethod	scala/collection/IterableLike.view:(II)Lscala/collection/IterableView;
Asciz	from;
Asciz	I;
Asciz	until;
Asciz	()Lscala/collection/generic/Subtractable;;
Asciz	scala/collection/TraversableLike;
class	scala/collection/TraversableLike
Asciz	()Ljava/lang/Object;;
NameAndType	repr:()Ljava/lang/Object;
InterfaceMethod	scala/collection/TraversableLike.repr:()Ljava/lang/Object;
Asciz	scala/collection/generic/Subtractable;
class	scala/collection/generic/Subtractable
Asciz	lastKey;
Asciz	()I;
Asciz	scala/collection/immutable/IntMap$Bin;
class	scala/collection/immutable/IntMap$Bin
Asciz	right;
NameAndType	right:()Lscala/collection/immutable/IntMap;
Method	scala/collection/immutable/IntMap$Bin.right:()Lscala/collection/immutable/IntMap;
Asciz	scala/MatchError;
class	scala/MatchError
Asciz	scala/collection/MapLike;
class	scala/collection/MapLike
Asciz	toString;
Asciz	()Ljava/lang/String;;
NameAndType	toString:()Ljava/lang/String;
InterfaceMethod	scala/collection/MapLike.toString:()Ljava/lang/String;
Asciz	(Ljava/lang/String;)V;
NameAndType	"<init>":(Ljava/lang/String;)V
Method	scala/MatchError."<init>":(Ljava/lang/String;)V
Asciz	scala/collection/immutable/IntMap$Tip;
class	scala/collection/immutable/IntMap$Tip
NameAndType	key:()I
Method	scala/collection/immutable/IntMap$Tip.key:()I
Asciz	scala/collection/immutable/IntMap$Nil$;
class	scala/collection/immutable/IntMap$Nil$
Asciz	Lscala/collection/immutable/IntMap$Nil$;;
NameAndType	MODULE$:Lscala/collection/immutable/IntMap$Nil$;
Field	scala/collection/immutable/IntMap$Nil$.MODULE$:Lscala/collection/immutable/IntMap$Nil$;
Asciz	equals;
Asciz	(Ljava/lang/Object;)Z;
NameAndType	equals:(Ljava/lang/Object;)Z
Method	java/lang/Object.equals:(Ljava/lang/Object;)Z
Asciz	Empty set;
String	Empty set
Asciz	java/lang/RuntimeException;
class	java/lang/RuntimeException
Method	java/lang/RuntimeException."<init>":(Ljava/lang/String;)V
Asciz	temp222;
Asciz	Lscala/collection/immutable/IntMap$Bin;;
Asciz	temp226;
Asciz	temp227;
Asciz	Lscala/collection/immutable/IntMap$Tip;;
Asciz	temp228;
Asciz	firstKey;
Asciz	left;
NameAndType	left:()Lscala/collection/immutable/IntMap;
Method	scala/collection/immutable/IntMap$Bin.left:()Lscala/collection/immutable/IntMap;
Asciz	temp212;
Asciz	temp215;
Asciz	temp217;
Asciz	temp218;
Asciz	(Lscala/collection/immutable/IntMap;)Lscala/collection/immutable/IntMap;;
Asciz	scala/collection/immutable/IntMap$$anonfun$$plus$plus$1;
class	scala/collection/immutable/IntMap$$anonfun$$plus$plus$1
Asciz	(Lscala/collection/immutable/IntMap;)V;
NameAndType	"<init>":(Lscala/collection/immutable/IntMap;)V
Method	scala/collection/immutable/IntMap$$anonfun$$plus$plus$1."<init>":(Lscala/collection/immutable/IntMap;)V
Asciz	unionWith;
Asciz	(Lscala/collection/immutable/IntMap;Lscala/Function3;)Lscala/collection/immutable/IntMap;;
NameAndType	unionWith:(Lscala/collection/immutable/IntMap;Lscala/Function3;)Lscala/collection/immutable/IntMap;
Method	scala/collection/immutable/IntMap.unionWith:(Lscala/collection/immutable/IntMap;Lscala/Function3;)Lscala/collection/immutable/IntMap;
Asciz	that;
Asciz	<S:Ljava/lang/Object;>(Lscala/collection/immutable/IntMap<TS;>;)Lscala/collection/immutable/IntMap<TS;>;;
Asciz	intersection;
Asciz	scala/collection/immutable/IntMap$$anonfun$intersection$1;
class	scala/collection/immutable/IntMap$$anonfun$intersection$1
Method	scala/collection/immutable/IntMap$$anonfun$intersection$1."<init>":(Lscala/collection/immutable/IntMap;)V
Asciz	intersectionWith;
NameAndType	intersectionWith:(Lscala/collection/immutable/IntMap;Lscala/Function3;)Lscala/collection/immutable/IntMap;
Method	scala/collection/immutable/IntMap.intersectionWith:(Lscala/collection/immutable/IntMap;Lscala/Function3;)Lscala/collection/immutable/IntMap;
Asciz	<R:Ljava/lang/Object;>(Lscala/collection/immutable/IntMap<TR;>;)Lscala/collection/immutable/IntMap<TT;>;;
Asciz	prefix;
NameAndType	prefix:()I
Method	scala/collection/immutable/IntMap$Bin.prefix:()I
Asciz	mask;
NameAndType	mask:()I
Method	scala/collection/immutable/IntMap$Bin.mask:()I
Asciz	scala/collection/immutable/IntMapUtils$;
class	scala/collection/immutable/IntMapUtils$
Asciz	Lscala/collection/immutable/IntMapUtils$;;
NameAndType	MODULE$:Lscala/collection/immutable/IntMapUtils$;
Field	scala/collection/immutable/IntMapUtils$.MODULE$:Lscala/collection/immutable/IntMapUtils$;
Asciz	unsignedCompare;
Asciz	(II)Z;
NameAndType	unsignedCompare:(II)Z
Method	scala/collection/immutable/IntMapUtils$.unsignedCompare:(II)Z
Asciz	hasMatch;
Asciz	(III)Z;
NameAndType	hasMatch:(III)Z
Method	scala/collection/immutable/IntMapUtils$.hasMatch:(III)Z
Asciz	zero;
NameAndType	zero:(II)Z
Method	scala/collection/immutable/IntMapUtils$.zero:(II)Z
Asciz	bin;
Asciz	(IILscala/collection/immutable/IntMap;Lscala/collection/immutable/IntMap;)Lscala/collection/immutable/IntMap;;
NameAndType	bin:(IILscala/collection/immutable/IntMap;Lscala/collection/immutable/IntMap;)Lscala/collection/immutable/IntMap;
Method	scala/collection/immutable/IntMapUtils$.bin:(IILscala/collection/immutable/IntMap;Lscala/collection/immutable/IntMap;)Lscala/collection/immutable/IntMap;
Asciz	scala/Tuple2;
class	scala/Tuple2
Asciz	(Ljava/lang/Object;Ljava/lang/Object;)V;
NameAndType	"<init>":(Ljava/lang/Object;Ljava/lang/Object;)V
Method	scala/Tuple2."<init>":(Ljava/lang/Object;Ljava/lang/Object;)V
Method	scala/Tuple2.toString:()Ljava/lang/String;
NameAndType	value:()Ljava/lang/Object;
Method	scala/collection/immutable/IntMap$Tip.value:()Ljava/lang/Object;
Asciz	scala/None$;
class	scala/None$
Asciz	Lscala/None$;;
NameAndType	MODULE$:Lscala/None$;
Field	scala/None$.MODULE$:Lscala/None$;
Asciz	scala/Option;
class	scala/Option
Method	scala/Option.toString:()Ljava/lang/String;
Asciz	scala/Some;
class	scala/Some
Asciz	x;
NameAndType	x:Ljava/lang/Object;
Field	scala/Some.x:Ljava/lang/Object;
Asciz	boxToInteger;
Asciz	(I)Ljava/lang/Integer;;
NameAndType	boxToInteger:(I)Ljava/lang/Integer;
Method	scala/runtime/BoxesRunTime.boxToInteger:(I)Ljava/lang/Integer;
Asciz	scala/Function3;
class	scala/Function3
Asciz	(Ljava/lang/Object;Ljava/lang/Object;Ljava/lang/Object;)Ljava/lang/Object;;
NameAndType	apply:(Ljava/lang/Object;Ljava/lang/Object;Ljava/lang/Object;)Ljava/lang/Object;
InterfaceMethod	scala/Function3.apply:(Ljava/lang/Object;Ljava/lang/Object;Ljava/lang/Object;)Ljava/lang/Object;
Asciz	(ILjava/lang/Object;)V;
NameAndType	"<init>":(ILjava/lang/Object;)V
Method	scala/collection/immutable/IntMap$Tip."<init>":(ILjava/lang/Object;)V
Asciz	f;
Asciz	Lscala/Function3;;
Asciz	temp192;
Asciz	temp197;
Asciz	temp194;
Asciz	temp195;
Asciz	temp196;
Asciz	temp198;
Asciz	temp193;
Asciz	temp199;
Asciz	temp200;
Asciz	temp201;
Asciz	temp202;
Asciz	temp203;
Asciz	temp204;
Asciz	temp205;
Asciz	temp186;
Asciz	Lscala/Some;;
Asciz	temp206;
Asciz	temp207;
Asciz	temp187;
Asciz	temp184;
Asciz	Lscala/Option;;
Asciz	temp208;
Asciz	temp190;
Asciz	temp191;
Asciz	temp188;
Asciz	<S:Ljava/lang/Object;R:Ljava/lang/Object;>(Lscala/collection/immutable/IntMap<TS;>;Lscala/Function3<Ljava/lang/Integer;TT;TS;TR;>;)Lscala/collection/immutable/IntMap<TR;>;;
Asciz	(IILscala/collection/immutable/IntMap;Lscala/collection/immutable/IntMap;)V;
NameAndType	"<init>":(IILscala/collection/immutable/IntMap;Lscala/collection/immutable/IntMap;)V
Method	scala/collection/immutable/IntMap$Bin."<init>":(IILscala/collection/immutable/IntMap;Lscala/collection/immutable/IntMap;)V
Asciz	join;
Asciz	(ILscala/collection/immutable/IntMap;ILscala/collection/immutable/IntMap;)Lscala/collection/immutable/IntMap;;
NameAndType	join:(ILscala/collection/immutable/IntMap;ILscala/collection/immutable/IntMap;)Lscala/collection/immutable/IntMap;
Method	scala/collection/immutable/IntMapUtils$.join:(ILscala/collection/immutable/IntMap;ILscala/collection/immutable/IntMap;)Lscala/collection/immutable/IntMap;
Asciz	scala/collection/immutable/IntMap$$anonfun$unionWith$1;
class	scala/collection/immutable/IntMap$$anonfun$unionWith$1
Asciz	(Lscala/collection/immutable/IntMap;Lscala/Function3;I)V;
NameAndType	"<init>":(Lscala/collection/immutable/IntMap;Lscala/Function3;I)V
Method	scala/collection/immutable/IntMap$$anonfun$unionWith$1."<init>":(Lscala/collection/immutable/IntMap;Lscala/Function3;I)V
Asciz	updateWith;
Asciz	(ILjava/lang/Object;Lscala/Function2;)Lscala/collection/immutable/IntMap;;
NameAndType	updateWith:(ILjava/lang/Object;Lscala/Function2;)Lscala/collection/immutable/IntMap;
Method	scala/collection/immutable/IntMap.updateWith:(ILjava/lang/Object;Lscala/Function2;)Lscala/collection/immutable/IntMap;
Asciz	scala/collection/immutable/IntMap$$anonfun$unionWith$2;
class	scala/collection/immutable/IntMap$$anonfun$unionWith$2
Method	scala/collection/immutable/IntMap$$anonfun$unionWith$2."<init>":(Lscala/collection/immutable/IntMap;Lscala/Function3;I)V
Asciz	f$1;
Asciz	temp169;
Asciz	temp164;
Asciz	temp165;
Asciz	temp170;
Asciz	temp166;
Asciz	temp171;
Asciz	temp163;
Asciz	temp168;
Asciz	temp167;
Asciz	temp172;
Asciz	temp173;
Asciz	temp174;
Asciz	temp162;
Asciz	temp176;
Asciz	temp178;
Asciz	temp177;
Asciz	temp179;
Asciz	key$2;
Asciz	<S:Ljava/lang/Object;>(Lscala/collection/immutable/IntMap<TS;>;Lscala/Function3<Ljava/lang/Integer;TS;TS;TS;>;)Lscala/collection/immutable/IntMap<TS;>;;
Asciz	modifyOrRemove;
Asciz	(Lscala/Function2;)Lscala/collection/immutable/IntMap;;
NameAndType	modifyOrRemove:(Lscala/Function2;)Lscala/collection/immutable/IntMap;
Method	scala/collection/immutable/IntMap.modifyOrRemove:(Lscala/Function2;)Lscala/collection/immutable/IntMap;
Asciz	scala/Function2;
class	scala/Function2
Asciz	(Ljava/lang/Object;Ljava/lang/Object;)Ljava/lang/Object;;
NameAndType	apply:(Ljava/lang/Object;Ljava/lang/Object;)Ljava/lang/Object;
InterfaceMethod	scala/Function2.apply:(Ljava/lang/Object;Ljava/lang/Object;)Ljava/lang/Object;
Asciz	Lscala/Function2;;
Asciz	temp153;
Asciz	temp156;
Asciz	temp157;
Asciz	temp154;
Asciz	temp155;
Asciz	newleft;
Asciz	newright;
Asciz	temp158;
Asciz	temp150;
Asciz	temp160;
Asciz	temp159;
Asciz	temp151;
Asciz	temp148;
Asciz	<S:Ljava/lang/Object;>(Lscala/Function2<Ljava/lang/Integer;TT;Lscala/Option<TS;>;>;)Lscala/collection/immutable/IntMap<TS;>;;
Asciz	temp139;
Asciz	temp140;
Asciz	temp141;
Asciz	temp142;
Asciz	temp143;
Asciz	temp144;
Asciz	temp145;
Asciz	(I)Lscala/collection/immutable/IntMap<TT;>;;
Asciz	temp129;
Asciz	temp131;
Asciz	temp132;
Asciz	temp133;
Asciz	temp130;
Asciz	temp134;
Asciz	temp136;
Asciz	temp135;
Asciz	<S:Ljava/lang/Object;>(ITS;Lscala/Function2<TT;TS;TS;>;)Lscala/collection/immutable/IntMap<TS;>;;
Asciz	<S:Ljava/lang/Object;>(ITS;)Lscala/collection/immutable/IntMap<TS;>;;
Asciz	Deprecated;
Asciz	temp119;
Asciz	temp121;
Asciz	temp122;
Asciz	temp123;
Asciz	temp120;
Asciz	temp124;
Asciz	temp125;
Asciz	_1;
NameAndType	_1:()Ljava/lang/Object;
Method	scala/Tuple2._1:()Ljava/lang/Object;
Asciz	_2;
NameAndType	_2:()Ljava/lang/Object;
Method	scala/Tuple2._2:()Ljava/lang/Object;
Asciz	<S:Ljava/lang/Object;>(Lscala/Tuple2<Ljava/lang/Integer;TS;>;)Lscala/collection/immutable/IntMap<TS;>;;
Asciz	Key not found;
String	Key not found
Asciz	key not found;
String	key not found
Asciz	temp109;
Asciz	temp111;
Asciz	temp112;
Asciz	temp113;
Asciz	temp114;
Asciz	temp115;
Asciz	temp116;
Asciz	(I)TT;;
Asciz	scala/Function0;
class	scala/Function0
NameAndType	apply:()Ljava/lang/Object;
InterfaceMethod	scala/Function0.apply:()Ljava/lang/Object;
Asciz	temp100;
Asciz	temp101;
Asciz	temp102;
Asciz	temp103;
Asciz	temp105;
Asciz	temp106;
Asciz	temp107;
Asciz	<S:Ljava/lang/Object;>(ILscala/Function0<TS;>;)TS;;
Asciz	(Ljava/lang/Object;)V;
NameAndType	"<init>":(Ljava/lang/Object;)V
Method	scala/Some."<init>":(Ljava/lang/Object;)V
Asciz	temp89;
Asciz	temp91;
Asciz	temp92;
Asciz	temp93;
Asciz	temp94;
Asciz	temp95;
Asciz	temp96;
Asciz	(I)Lscala/Option<TT;>;;
Asciz	size;
NameAndType	size:()I
Method	scala/collection/immutable/IntMap.size:()I
Asciz	temp83;
Asciz	temp86;
Asciz	temp87;
Asciz	transform;
NameAndType	transform:(Lscala/Function2;)Lscala/collection/immutable/IntMap;
Method	scala/collection/immutable/IntMap.transform:(Lscala/Function2;)Lscala/collection/immutable/IntMap;
Asciz	(Lscala/collection/immutable/IntMap;Lscala/collection/immutable/IntMap;)Lscala/collection/immutable/IntMap;;
NameAndType	bin:(Lscala/collection/immutable/IntMap;Lscala/collection/immutable/IntMap;)Lscala/collection/immutable/IntMap;
Method	scala/collection/immutable/IntMap$Bin.bin:(Lscala/collection/immutable/IntMap;Lscala/collection/immutable/IntMap;)Lscala/collection/immutable/IntMap;
Asciz	withValue;
Asciz	(Ljava/lang/Object;)Lscala/collection/immutable/IntMap$Tip;;
NameAndType	withValue:(Ljava/lang/Object;)Lscala/collection/immutable/IntMap$Tip;
Method	scala/collection/immutable/IntMap$Tip.withValue:(Ljava/lang/Object;)Lscala/collection/immutable/IntMap$Tip;
Asciz	temp69;
Asciz	temp72;
Asciz	temp73;
Asciz	temp74;
Asciz	temp75;
Asciz	temp76;
Asciz	<S:Ljava/lang/Object;>(Lscala/Function2<Ljava/lang/Integer;TT;TS;>;)Lscala/collection/immutable/IntMap<TS;>;;
Asciz	scala/Function1;
class	scala/Function1
NameAndType	apply:(Ljava/lang/Object;)Ljava/lang/Object;
InterfaceMethod	scala/Function1.apply:(Ljava/lang/Object;)Ljava/lang/Object;
Asciz	unboxToBoolean;
NameAndType	unboxToBoolean:(Ljava/lang/Object;)Z
Method	scala/runtime/BoxesRunTime.unboxToBoolean:(Ljava/lang/Object;)Z
Asciz	temp59;
Asciz	temp62;
Asciz	temp63;
Asciz	temp60;
Asciz	temp61;
Asciz	tp3;
Asciz	tp4;
Asciz	temp64;
Asciz	temp65;
Asciz	temp66;
Asciz	(Lscala/Function1<Lscala/Tuple2<Ljava/lang/Integer;TT;>;Ljava/lang/Boolean;>;)Lscala/collection/immutable/IntMap<TT;>;;
Asciz	isEmpty;
Asciz	()Z;
Asciz	stringPrefix;
Asciz	IntMap;
String	IntMap
Asciz	foreachValue;
NameAndType	foreachValue:(Lscala/Function1;)V
Method	scala/collection/immutable/IntMap.foreachValue:(Lscala/Function1;)V
Asciz	temp49;
Asciz	temp52;
Asciz	temp53;
Asciz	temp54;
Asciz	temp56;
Asciz	(Lscala/Function1<TT;Ljava/lang/Object;>;)V;
Asciz	valuesIterator;
Asciz	()Lscala/collection/Iterator;;
Asciz	scala/collection/Iterator$;
class	scala/collection/Iterator$
Asciz	Lscala/collection/Iterator$;;
NameAndType	MODULE$:Lscala/collection/Iterator$;
Field	scala/collection/Iterator$.MODULE$:Lscala/collection/Iterator$;
NameAndType	empty:()Lscala/collection/Iterator;
Method	scala/collection/Iterator$.empty:()Lscala/collection/Iterator;
Asciz	scala/collection/immutable/IntMapValueIterator;
class	scala/collection/immutable/IntMapValueIterator
Method	scala/collection/immutable/IntMapValueIterator."<init>":(Lscala/collection/immutable/IntMap;)V
Asciz	()Lscala/collection/Iterator<TT;>;;
Asciz	foreachKey;
NameAndType	foreachKey:(Lscala/Function1;)V
Method	scala/collection/immutable/IntMap.foreachKey:(Lscala/Function1;)V
Asciz	temp37;
Asciz	temp40;
Asciz	temp41;
Asciz	temp42;
Asciz	temp43;
Asciz	(Lscala/Function1<Ljava/lang/Integer;Ljava/lang/Object;>;)V;
Asciz	keysIterator;
Asciz	scala/collection/immutable/IntMapKeyIterator;
class	scala/collection/immutable/IntMapKeyIterator
Method	scala/collection/immutable/IntMapKeyIterator."<init>":(Lscala/collection/immutable/IntMap;)V
Asciz	()Lscala/collection/Iterator<Ljava/lang/Integer;>;;
Asciz	foreach;
NameAndType	foreach:(Lscala/Function1;)V
Method	scala/collection/immutable/IntMap.foreach:(Lscala/Function1;)V
Asciz	temp25;
Asciz	temp28;
Asciz	temp29;
Asciz	temp30;
Asciz	temp31;
Asciz	temp32;
Asciz	<U:Ljava/lang/Object;>(Lscala/Function1<Lscala/Tuple2<Ljava/lang/Integer;TT;>;TU;>;)V;
Asciz	iterator;
Asciz	scala/collection/immutable/IntMapEntryIterator;
class	scala/collection/immutable/IntMapEntryIterator
Method	scala/collection/immutable/IntMapEntryIterator."<init>":(Lscala/collection/immutable/IntMap;)V
Asciz	()Lscala/collection/Iterator<Lscala/Tuple2<Ljava/lang/Integer;TT;>;>;;
Asciz	toList;
Asciz	()Lscala/collection/immutable/List;;
Asciz	scala/collection/mutable/ListBuffer;
class	scala/collection/mutable/ListBuffer
Method	scala/collection/mutable/ListBuffer."<init>":()V
Asciz	scala/collection/immutable/IntMap$$anonfun$toList$1;
class	scala/collection/immutable/IntMap$$anonfun$toList$1
Asciz	(Lscala/collection/immutable/IntMap;Lscala/collection/mutable/ListBuffer;)V;
NameAndType	"<init>":(Lscala/collection/immutable/IntMap;Lscala/collection/mutable/ListBuffer;)V
Method	scala/collection/immutable/IntMap$$anonfun$toList$1."<init>":(Lscala/collection/immutable/IntMap;Lscala/collection/mutable/ListBuffer;)V
NameAndType	toList:()Lscala/collection/immutable/List;
Method	scala/collection/mutable/ListBuffer.toList:()Lscala/collection/immutable/List;
Asciz	buffer$1;
Asciz	Lscala/collection/mutable/ListBuffer;;
Asciz	()Lscala/collection/immutable/List<Lscala/Tuple2<Ljava/lang/Integer;TT;>;>;;
Asciz	()Lscala/collection/immutable/IntMap<TT;>;;
Asciz	withFilter;
Asciz	(Lscala/Function1;)Lscala/collection/TraversableLike$WithFilter;;
Asciz	(Lscala/collection/TraversableLike;Lscala/Function1;)Lscala/collection/TraversableLike$WithFilter;;
NameAndType	withFilter:(Lscala/collection/TraversableLike;Lscala/Function1;)Lscala/collection/TraversableLike$WithFilter;
Method	scala/collection/TraversableLike$class.withFilter:(Lscala/collection/TraversableLike;Lscala/Function1;)Lscala/collection/TraversableLike$WithFilter;
Asciz	addString;
Asciz	(Lscala/collection/mutable/StringBuilder;)Lscala/collection/mutable/StringBuilder;;
Asciz	(Lscala/collection/TraversableLike;Lscala/collection/mutable/StringBuilder;)Lscala/collection/mutable/StringBuilder;;
NameAndType	addString:(Lscala/collection/TraversableLike;Lscala/collection/mutable/StringBuilder;)Lscala/collection/mutable/StringBuilder;
Method	scala/collection/TraversableLike$class.addString:(Lscala/collection/TraversableLike;Lscala/collection/mutable/StringBuilder;)Lscala/collection/mutable/StringBuilder;
Asciz	b;
Asciz	Lscala/collection/mutable/StringBuilder;;
Asciz	(Lscala/collection/mutable/StringBuilder;Ljava/lang/String;)Lscala/collection/mutable/StringBuilder;;
Asciz	(Lscala/collection/TraversableLike;Lscala/collection/mutable/StringBuilder;Ljava/lang/String;)Lscala/collection/mutable/StringBuilder;;
NameAndType	addString:(Lscala/collection/TraversableLike;Lscala/collection/mutable/StringBuilder;Ljava/lang/String;)Lscala/collection/mutable/StringBuilder;
Method	scala/collection/TraversableLike$class.addString:(Lscala/collection/TraversableLike;Lscala/collection/mutable/StringBuilder;Ljava/lang/String;)Lscala/collection/mutable/StringBuilder;
Asciz	sep;
Asciz	Ljava/lang/String;;
Asciz	mkString;
Asciz	(Lscala/collection/TraversableLike;)Ljava/lang/String;;
NameAndType	mkString:(Lscala/collection/TraversableLike;)Ljava/lang/String;
Method	scala/collection/TraversableLike$class.mkString:(Lscala/collection/TraversableLike;)Ljava/lang/String;
Asciz	(Ljava/lang/String;)Ljava/lang/String;;
Asciz	(Lscala/collection/TraversableLike;Ljava/lang/String;)Ljava/lang/String;;
NameAndType	mkString:(Lscala/collection/TraversableLike;Ljava/lang/String;)Ljava/lang/String;
Method	scala/collection/TraversableLike$class.mkString:(Lscala/collection/TraversableLike;Ljava/lang/String;)Ljava/lang/String;
Asciz	(Ljava/lang/String;Ljava/lang/String;Ljava/lang/String;)Ljava/lang/String;;
Asciz	(Lscala/collection/TraversableLike;Ljava/lang/String;Ljava/lang/String;Ljava/lang/String;)Ljava/lang/String;;
NameAndType	mkString:(Lscala/collection/TraversableLike;Ljava/lang/String;Ljava/lang/String;Ljava/lang/String;)Ljava/lang/String;
Method	scala/collection/TraversableLike$class.mkString:(Lscala/collection/TraversableLike;Ljava/lang/String;Ljava/lang/String;Ljava/lang/String;)Ljava/lang/String;
Asciz	start;
Asciz	end;
Asciz	toSet;
Asciz	()Lscala/collection/immutable/Set;;
Asciz	(Lscala/collection/TraversableLike;)Lscala/collection/immutable/Set;;
NameAndType	toSet:(Lscala/collection/TraversableLike;)Lscala/collection/immutable/Set;
Method	scala/collection/TraversableLike$class.toSet:(Lscala/collection/TraversableLike;)Lscala/collection/immutable/Set;
Asciz	toIndexedSeq;
Asciz	()Lscala/collection/mutable/IndexedSeq;;
Asciz	(Lscala/collection/TraversableLike;)Lscala/collection/mutable/IndexedSeq;;
NameAndType	toIndexedSeq:(Lscala/collection/TraversableLike;)Lscala/collection/mutable/IndexedSeq;
Method	scala/collection/TraversableLike$class.toIndexedSeq:(Lscala/collection/TraversableLike;)Lscala/collection/mutable/IndexedSeq;
Asciz	toSeq;
Asciz	()Lscala/collection/Seq;;
Asciz	(Lscala/collection/TraversableLike;)Lscala/collection/Seq;;
NameAndType	toSeq:(Lscala/collection/TraversableLike;)Lscala/collection/Seq;
Method	scala/collection/TraversableLike$class.toSeq:(Lscala/collection/TraversableLike;)Lscala/collection/Seq;
Asciz	toArray;
Asciz	(Lscala/reflect/ClassManifest;)Ljava/lang/Object;;
Asciz	(Lscala/collection/TraversableLike;Lscala/reflect/ClassManifest;)Ljava/lang/Object;;
NameAndType	toArray:(Lscala/collection/TraversableLike;Lscala/reflect/ClassManifest;)Ljava/lang/Object;
Method	scala/collection/TraversableLike$class.toArray:(Lscala/collection/TraversableLike;Lscala/reflect/ClassManifest;)Ljava/lang/Object;
Asciz	evidence$1;
Asciz	Lscala/reflect/ClassManifest;;
Asciz	copyToArray;
Asciz	(Lscala/collection/TraversableLike;Ljava/lang/Object;)V;
NameAndType	copyToArray:(Lscala/collection/TraversableLike;Ljava/lang/Object;)V
Method	scala/collection/TraversableLike$class.copyToArray:(Lscala/collection/TraversableLike;Ljava/lang/Object;)V
Asciz	xs;
Asciz	(Ljava/lang/Object;I)V;
Asciz	(Lscala/collection/TraversableLike;Ljava/lang/Object;I)V;
NameAndType	copyToArray:(Lscala/collection/TraversableLike;Ljava/lang/Object;I)V
Method	scala/collection/TraversableLike$class.copyToArray:(Lscala/collection/TraversableLike;Ljava/lang/Object;I)V
Asciz	copyToBuffer;
Asciz	(Lscala/collection/mutable/Buffer;)V;
Asciz	(Lscala/collection/TraversableLike;Lscala/collection/mutable/Buffer;)V;
NameAndType	copyToBuffer:(Lscala/collection/TraversableLike;Lscala/collection/mutable/Buffer;)V
Method	scala/collection/TraversableLike$class.copyToBuffer:(Lscala/collection/TraversableLike;Lscala/collection/mutable/Buffer;)V
Asciz	dest;
Asciz	Lscala/collection/mutable/Buffer;;
Asciz	splitAt;
Asciz	(I)Lscala/Tuple2;;
Asciz	(Lscala/collection/TraversableLike;I)Lscala/Tuple2;;
NameAndType	splitAt:(Lscala/collection/TraversableLike;I)Lscala/Tuple2;
Method	scala/collection/TraversableLike$class.splitAt:(Lscala/collection/TraversableLike;I)Lscala/Tuple2;
Asciz	n;
Asciz	span;
Asciz	(Lscala/Function1;)Lscala/Tuple2;;
Asciz	(Lscala/collection/TraversableLike;Lscala/Function1;)Lscala/Tuple2;;
NameAndType	span:(Lscala/collection/TraversableLike;Lscala/Function1;)Lscala/Tuple2;
Method	scala/collection/TraversableLike$class.span:(Lscala/collection/TraversableLike;Lscala/Function1;)Lscala/Tuple2;
Asciz	dropWhile;
Asciz	(Lscala/collection/TraversableLike;Lscala/Function1;)Ljava/lang/Object;;
NameAndType	dropWhile:(Lscala/collection/TraversableLike;Lscala/Function1;)Ljava/lang/Object;
Method	scala/collection/TraversableLike$class.dropWhile:(Lscala/collection/TraversableLike;Lscala/Function1;)Ljava/lang/Object;
Asciz	drop;
Asciz	(Lscala/collection/TraversableLike;I)Ljava/lang/Object;;
NameAndType	drop:(Lscala/collection/TraversableLike;I)Ljava/lang/Object;
Method	scala/collection/TraversableLike$class.drop:(Lscala/collection/TraversableLike;I)Ljava/lang/Object;
Asciz	init;
Asciz	(Lscala/collection/TraversableLike;)Ljava/lang/Object;;
NameAndType	init:(Lscala/collection/TraversableLike;)Ljava/lang/Object;
Method	scala/collection/TraversableLike$class.init:(Lscala/collection/TraversableLike;)Ljava/lang/Object;
Asciz	lastOption;
Asciz	()Lscala/Option;;
Asciz	(Lscala/collection/TraversableLike;)Lscala/Option;;
NameAndType	lastOption:(Lscala/collection/TraversableLike;)Lscala/Option;
Method	scala/collection/TraversableLike$class.lastOption:(Lscala/collection/TraversableLike;)Lscala/Option;
Asciz	last;
NameAndType	last:(Lscala/collection/TraversableLike;)Ljava/lang/Object;
Method	scala/collection/TraversableLike$class.last:(Lscala/collection/TraversableLike;)Ljava/lang/Object;
Asciz	tail;
NameAndType	tail:(Lscala/collection/TraversableLike;)Ljava/lang/Object;
Method	scala/collection/TraversableLike$class.tail:(Lscala/collection/TraversableLike;)Ljava/lang/Object;
Asciz	headOption;
NameAndType	headOption:(Lscala/collection/TraversableLike;)Lscala/Option;
Method	scala/collection/TraversableLike$class.headOption:(Lscala/collection/TraversableLike;)Lscala/Option;
Asciz	max;
Asciz	(Lscala/math/Ordering;)Ljava/lang/Object;;
Asciz	(Lscala/collection/TraversableLike;Lscala/math/Ordering;)Ljava/lang/Object;;
NameAndType	max:(Lscala/collection/TraversableLike;Lscala/math/Ordering;)Ljava/lang/Object;
Method	scala/collection/TraversableLike$class.max:(Lscala/collection/TraversableLike;Lscala/math/Ordering;)Ljava/lang/Object;
Asciz	cmp;
Asciz	Lscala/math/Ordering;;
Asciz	min;
NameAndType	min:(Lscala/collection/TraversableLike;Lscala/math/Ordering;)Ljava/lang/Object;
Method	scala/collection/TraversableLike$class.min:(Lscala/collection/TraversableLike;Lscala/math/Ordering;)Ljava/lang/Object;
Asciz	product;
Asciz	(Lscala/math/Numeric;)Ljava/lang/Object;;
Asciz	(Lscala/collection/TraversableLike;Lscala/math/Numeric;)Ljava/lang/Object;;
NameAndType	product:(Lscala/collection/TraversableLike;Lscala/math/Numeric;)Ljava/lang/Object;
Method	scala/collection/TraversableLike$class.product:(Lscala/collection/TraversableLike;Lscala/math/Numeric;)Ljava/lang/Object;
Asciz	num;
Asciz	Lscala/math/Numeric;;
Asciz	sum;
NameAndType	sum:(Lscala/collection/TraversableLike;Lscala/math/Numeric;)Ljava/lang/Object;
Method	scala/collection/TraversableLike$class.sum:(Lscala/collection/TraversableLike;Lscala/math/Numeric;)Ljava/lang/Object;
Asciz	reduceRightOption;
Asciz	(Lscala/Function2;)Lscala/Option;;
Asciz	(Lscala/collection/TraversableLike;Lscala/Function2;)Lscala/Option;;
NameAndType	reduceRightOption:(Lscala/collection/TraversableLike;Lscala/Function2;)Lscala/Option;
Method	scala/collection/TraversableLike$class.reduceRightOption:(Lscala/collection/TraversableLike;Lscala/Function2;)Lscala/Option;
Asciz	op;
Asciz	reduceLeftOption;
NameAndType	reduceLeftOption:(Lscala/collection/TraversableLike;Lscala/Function2;)Lscala/Option;
Method	scala/collection/TraversableLike$class.reduceLeftOption:(Lscala/collection/TraversableLike;Lscala/Function2;)Lscala/Option;
Asciz	reduceLeft;
Asciz	(Lscala/Function2;)Ljava/lang/Object;;
Asciz	(Lscala/collection/TraversableLike;Lscala/Function2;)Ljava/lang/Object;;
NameAndType	reduceLeft:(Lscala/collection/TraversableLike;Lscala/Function2;)Ljava/lang/Object;
Method	scala/collection/TraversableLike$class.reduceLeft:(Lscala/collection/TraversableLike;Lscala/Function2;)Ljava/lang/Object;
Asciz	$colon$bslash;
Asciz	(Ljava/lang/Object;Lscala/Function2;)Ljava/lang/Object;;
Asciz	(Lscala/collection/TraversableLike;Ljava/lang/Object;Lscala/Function2;)Ljava/lang/Object;;
NameAndType	$colon$bslash:(Lscala/collection/TraversableLike;Ljava/lang/Object;Lscala/Function2;)Ljava/lang/Object;
Method	scala/collection/TraversableLike$class.$colon$bslash:(Lscala/collection/TraversableLike;Ljava/lang/Object;Lscala/Function2;)Ljava/lang/Object;
Asciz	z;
Asciz	$div$colon;
NameAndType	$div$colon:(Lscala/collection/TraversableLike;Ljava/lang/Object;Lscala/Function2;)Ljava/lang/Object;
Method	scala/collection/TraversableLike$class.$div$colon:(Lscala/collection/TraversableLike;Ljava/lang/Object;Lscala/Function2;)Ljava/lang/Object;
Asciz	foldLeft;
NameAndType	foldLeft:(Lscala/collection/TraversableLike;Ljava/lang/Object;Lscala/Function2;)Ljava/lang/Object;
Method	scala/collection/TraversableLike$class.foldLeft:(Lscala/collection/TraversableLike;Ljava/lang/Object;Lscala/Function2;)Ljava/lang/Object;
Asciz	count;
Asciz	(Lscala/Function1;)I;
Asciz	(Lscala/collection/TraversableLike;Lscala/Function1;)I;
NameAndType	count:(Lscala/collection/TraversableLike;Lscala/Function1;)I
Method	scala/collection/TraversableLike$class.count:(Lscala/collection/TraversableLike;Lscala/Function1;)I
Asciz	groupBy;
Asciz	(Lscala/Function1;)Lscala/collection/Map;;
Asciz	(Lscala/collection/TraversableLike;Lscala/Function1;)Lscala/collection/Map;;
NameAndType	groupBy:(Lscala/collection/TraversableLike;Lscala/Function1;)Lscala/collection/Map;
Method	scala/collection/TraversableLike$class.groupBy:(Lscala/collection/TraversableLike;Lscala/Function1;)Lscala/collection/Map;
Asciz	partition;
NameAndType	partition:(Lscala/collection/TraversableLike;Lscala/Function1;)Lscala/Tuple2;
Method	scala/collection/TraversableLike$class.partition:(Lscala/collection/TraversableLike;Lscala/Function1;)Lscala/Tuple2;
Asciz	partialMap;
Asciz	(Lscala/PartialFunction;Lscala/collection/generic/CanBuildFrom;)Ljava/lang/Object;;
Asciz	(Lscala/collection/TraversableLike;Lscala/PartialFunction;Lscala/collection/generic/CanBuildFrom;)Ljava/lang/Object;;
NameAndType	partialMap:(Lscala/collection/TraversableLike;Lscala/PartialFunction;Lscala/collection/generic/CanBuildFrom;)Ljava/lang/Object;
Method	scala/collection/TraversableLike$class.partialMap:(Lscala/collection/TraversableLike;Lscala/PartialFunction;Lscala/collection/generic/CanBuildFrom;)Ljava/lang/Object;
Asciz	pf;
Asciz	Lscala/PartialFunction;;
Asciz	bf;
Asciz	Lscala/collection/generic/CanBuildFrom;;
Asciz	flatMap;
Asciz	(Lscala/Function1;Lscala/collection/generic/CanBuildFrom;)Ljava/lang/Object;;
Asciz	(Lscala/collection/TraversableLike;Lscala/Function1;Lscala/collection/generic/CanBuildFrom;)Ljava/lang/Object;;
NameAndType	flatMap:(Lscala/collection/TraversableLike;Lscala/Function1;Lscala/collection/generic/CanBuildFrom;)Ljava/lang/Object;
Method	scala/collection/TraversableLike$class.flatMap:(Lscala/collection/TraversableLike;Lscala/Function1;Lscala/collection/generic/CanBuildFrom;)Ljava/lang/Object;
Asciz	map;
NameAndType	map:(Lscala/collection/TraversableLike;Lscala/Function1;Lscala/collection/generic/CanBuildFrom;)Ljava/lang/Object;
Method	scala/collection/TraversableLike$class.map:(Lscala/collection/TraversableLike;Lscala/Function1;Lscala/collection/generic/CanBuildFrom;)Ljava/lang/Object;
Asciz	(Lscala/collection/Iterator;Lscala/collection/generic/CanBuildFrom;)Ljava/lang/Object;;
Asciz	(Lscala/collection/TraversableLike;Lscala/collection/Iterator;Lscala/collection/generic/CanBuildFrom;)Ljava/lang/Object;;
NameAndType	$plus$plus:(Lscala/collection/TraversableLike;Lscala/collection/Iterator;Lscala/collection/generic/CanBuildFrom;)Ljava/lang/Object;
Method	scala/collection/TraversableLike$class.$plus$plus:(Lscala/collection/TraversableLike;Lscala/collection/Iterator;Lscala/collection/generic/CanBuildFrom;)Ljava/lang/Object;
Asciz	(Lscala/collection/Traversable;Lscala/collection/generic/CanBuildFrom;)Ljava/lang/Object;;
Asciz	(Lscala/collection/TraversableLike;Lscala/collection/Traversable;Lscala/collection/generic/CanBuildFrom;)Ljava/lang/Object;;
NameAndType	$plus$plus:(Lscala/collection/TraversableLike;Lscala/collection/Traversable;Lscala/collection/generic/CanBuildFrom;)Ljava/lang/Object;
Method	scala/collection/TraversableLike$class.$plus$plus:(Lscala/collection/TraversableLike;Lscala/collection/Traversable;Lscala/collection/generic/CanBuildFrom;)Ljava/lang/Object;
Asciz	hasDefiniteSize;
Asciz	(Lscala/collection/TraversableLike;)Z;
NameAndType	hasDefiniteSize:(Lscala/collection/TraversableLike;)Z
Method	scala/collection/TraversableLike$class.hasDefiniteSize:(Lscala/collection/TraversableLike;)Z
Asciz	nonEmpty;
NameAndType	nonEmpty:(Lscala/collection/TraversableLike;)Z
Method	scala/collection/TraversableLike$class.nonEmpty:(Lscala/collection/TraversableLike;)Z
NameAndType	repr:(Lscala/collection/TraversableLike;)Ljava/lang/Object;
Method	scala/collection/TraversableLike$class.repr:(Lscala/collection/TraversableLike;)Ljava/lang/Object;
Asciz	transpose;
Asciz	(Lscala/Function1;)Lscala/collection/Traversable;;
Asciz	(Lscala/collection/generic/GenericTraversableTemplate;Lscala/Function1;)Lscala/collection/Traversable;;
NameAndType	transpose:(Lscala/collection/generic/GenericTraversableTemplate;Lscala/Function1;)Lscala/collection/Traversable;
Method	scala/collection/generic/GenericTraversableTemplate$class.transpose:(Lscala/collection/generic/GenericTraversableTemplate;Lscala/Function1;)Lscala/collection/Traversable;
Asciz	asTraversable;
Asciz	flatten;
NameAndType	flatten:(Lscala/collection/generic/GenericTraversableTemplate;Lscala/Function1;)Lscala/collection/Traversable;
Method	scala/collection/generic/GenericTraversableTemplate$class.flatten:(Lscala/collection/generic/GenericTraversableTemplate;Lscala/Function1;)Lscala/collection/Traversable;
Asciz	unzip;
Asciz	(Lscala/collection/generic/GenericTraversableTemplate;Lscala/Function1;)Lscala/Tuple2;;
NameAndType	unzip:(Lscala/collection/generic/GenericTraversableTemplate;Lscala/Function1;)Lscala/Tuple2;
Method	scala/collection/generic/GenericTraversableTemplate$class.unzip:(Lscala/collection/generic/GenericTraversableTemplate;Lscala/Function1;)Lscala/Tuple2;
Asciz	asPair;
Asciz	genericBuilder;
Asciz	()Lscala/collection/mutable/Builder;;
Asciz	(Lscala/collection/generic/GenericTraversableTemplate;)Lscala/collection/mutable/Builder;;
NameAndType	genericBuilder:(Lscala/collection/generic/GenericTraversableTemplate;)Lscala/collection/mutable/Builder;
Method	scala/collection/generic/GenericTraversableTemplate$class.genericBuilder:(Lscala/collection/generic/GenericTraversableTemplate;)Lscala/collection/mutable/Builder;
Asciz	projection;
Asciz	(Lscala/collection/IterableLike;)Lscala/collection/IterableView;;
NameAndType	projection:(Lscala/collection/IterableLike;)Lscala/collection/IterableView;
Method	scala/collection/IterableLike$class.projection:(Lscala/collection/IterableLike;)Lscala/collection/IterableView;
Asciz	firstOption;
Asciz	(Lscala/collection/IterableLike;)Lscala/Option;;
NameAndType	firstOption:(Lscala/collection/IterableLike;)Lscala/Option;
Method	scala/collection/IterableLike$class.firstOption:(Lscala/collection/IterableLike;)Lscala/Option;
Asciz	first;
Asciz	(Lscala/collection/IterableLike;)Ljava/lang/Object;;
NameAndType	first:(Lscala/collection/IterableLike;)Ljava/lang/Object;
Method	scala/collection/IterableLike$class.first:(Lscala/collection/IterableLike;)Ljava/lang/Object;
Asciz	(Lscala/collection/IterableLike;II)Lscala/collection/IterableView;;
NameAndType	view:(Lscala/collection/IterableLike;II)Lscala/collection/IterableView;
Method	scala/collection/IterableLike$class.view:(Lscala/collection/IterableLike;II)Lscala/collection/IterableView;
NameAndType	view:(Lscala/collection/IterableLike;)Lscala/collection/IterableView;
Method	scala/collection/IterableLike$class.view:(Lscala/collection/IterableLike;)Lscala/collection/IterableView;
Asciz	canEqual;
Asciz	(Lscala/collection/IterableLike;Ljava/lang/Object;)Z;
NameAndType	canEqual:(Lscala/collection/IterableLike;Ljava/lang/Object;)Z
Method	scala/collection/IterableLike$class.canEqual:(Lscala/collection/IterableLike;Ljava/lang/Object;)Z
Asciz	toStream;
Asciz	()Lscala/collection/immutable/Stream;;
Asciz	(Lscala/collection/IterableLike;)Lscala/collection/immutable/Stream;;
NameAndType	toStream:(Lscala/collection/IterableLike;)Lscala/collection/immutable/Stream;
Method	scala/collection/IterableLike$class.toStream:(Lscala/collection/IterableLike;)Lscala/collection/immutable/Stream;
Asciz	sameElements;
Asciz	(Lscala/collection/Iterable;)Z;
Asciz	(Lscala/collection/IterableLike;Lscala/collection/Iterable;)Z;
NameAndType	sameElements:(Lscala/collection/IterableLike;Lscala/collection/Iterable;)Z
Method	scala/collection/IterableLike$class.sameElements:(Lscala/collection/IterableLike;Lscala/collection/Iterable;)Z
Asciz	Lscala/collection/Iterable;;
Asciz	zipWithIndex;
Asciz	(Lscala/collection/generic/CanBuildFrom;)Ljava/lang/Object;;
Asciz	(Lscala/collection/IterableLike;Lscala/collection/generic/CanBuildFrom;)Ljava/lang/Object;;
NameAndType	zipWithIndex:(Lscala/collection/IterableLike;Lscala/collection/generic/CanBuildFrom;)Ljava/lang/Object;
Method	scala/collection/IterableLike$class.zipWithIndex:(Lscala/collection/IterableLike;Lscala/collection/generic/CanBuildFrom;)Ljava/lang/Object;
Asciz	zipAll;
Asciz	(Lscala/collection/Iterable;Ljava/lang/Object;Ljava/lang/Object;Lscala/collection/generic/CanBuildFrom;)Ljava/lang/Object;;
Asciz	(Lscala/collection/IterableLike;Lscala/collection/Iterable;Ljava/lang/Object;Ljava/lang/Object;Lscala/collection/generic/CanBuildFrom;)Ljava/lang/Object;;
NameAndType	zipAll:(Lscala/collection/IterableLike;Lscala/collection/Iterable;Ljava/lang/Object;Ljava/lang/Object;Lscala/collection/generic/CanBuildFrom;)Ljava/lang/Object;
Method	scala/collection/IterableLike$class.zipAll:(Lscala/collection/IterableLike;Lscala/collection/Iterable;Ljava/lang/Object;Ljava/lang/Object;Lscala/collection/generic/CanBuildFrom;)Ljava/lang/Object;
Asciz	thisElem;
Asciz	thatElem;
Asciz	zip;
Asciz	(Lscala/collection/Iterable;Lscala/collection/generic/CanBuildFrom;)Ljava/lang/Object;;
Asciz	(Lscala/collection/IterableLike;Lscala/collection/Iterable;Lscala/collection/generic/CanBuildFrom;)Ljava/lang/Object;;
NameAndType	zip:(Lscala/collection/IterableLike;Lscala/collection/Iterable;Lscala/collection/generic/CanBuildFrom;)Ljava/lang/Object;
Method	scala/collection/IterableLike$class.zip:(Lscala/collection/IterableLike;Lscala/collection/Iterable;Lscala/collection/generic/CanBuildFrom;)Ljava/lang/Object;
Asciz	(Ljava/lang/Object;II)V;
Asciz	(Lscala/collection/IterableLike;Ljava/lang/Object;II)V;
NameAndType	copyToArray:(Lscala/collection/IterableLike;Ljava/lang/Object;II)V
Method	scala/collection/IterableLike$class.copyToArray:(Lscala/collection/IterableLike;Ljava/lang/Object;II)V
Asciz	len;
Asciz	dropRight;
Asciz	(Lscala/collection/IterableLike;I)Ljava/lang/Object;;
NameAndType	dropRight:(Lscala/collection/IterableLike;I)Ljava/lang/Object;
Method	scala/collection/IterableLike$class.dropRight:(Lscala/collection/IterableLike;I)Ljava/lang/Object;
Asciz	takeRight;
NameAndType	takeRight:(Lscala/collection/IterableLike;I)Ljava/lang/Object;
Method	scala/collection/IterableLike$class.takeRight:(Lscala/collection/IterableLike;I)Ljava/lang/Object;
Asciz	takeWhile;
Asciz	(Lscala/collection/IterableLike;Lscala/Function1;)Ljava/lang/Object;;
NameAndType	takeWhile:(Lscala/collection/IterableLike;Lscala/Function1;)Ljava/lang/Object;
Method	scala/collection/IterableLike$class.takeWhile:(Lscala/collection/IterableLike;Lscala/Function1;)Ljava/lang/Object;
Asciz	slice;
Asciz	(II)Ljava/lang/Object;;
Asciz	(Lscala/collection/IterableLike;II)Ljava/lang/Object;;
NameAndType	slice:(Lscala/collection/IterableLike;II)Ljava/lang/Object;
Method	scala/collection/IterableLike$class.slice:(Lscala/collection/IterableLike;II)Ljava/lang/Object;
Asciz	take;
NameAndType	take:(Lscala/collection/IterableLike;I)Ljava/lang/Object;
Method	scala/collection/IterableLike$class.take:(Lscala/collection/IterableLike;I)Ljava/lang/Object;
Asciz	head;
NameAndType	head:(Lscala/collection/IterableLike;)Ljava/lang/Object;
Method	scala/collection/IterableLike$class.head:(Lscala/collection/IterableLike;)Ljava/lang/Object;
Asciz	toIterable;
Asciz	(Lscala/collection/IterableLike;)Lscala/collection/Iterable;;
NameAndType	toIterable:(Lscala/collection/IterableLike;)Lscala/collection/Iterable;
Method	scala/collection/IterableLike$class.toIterable:(Lscala/collection/IterableLike;)Lscala/collection/Iterable;
Asciz	reduceRight;
Asciz	(Lscala/collection/IterableLike;Lscala/Function2;)Ljava/lang/Object;;
NameAndType	reduceRight:(Lscala/collection/IterableLike;Lscala/Function2;)Ljava/lang/Object;
Method	scala/collection/IterableLike$class.reduceRight:(Lscala/collection/IterableLike;Lscala/Function2;)Ljava/lang/Object;
Asciz	foldRight;
Asciz	(Lscala/collection/IterableLike;Ljava/lang/Object;Lscala/Function2;)Ljava/lang/Object;;
NameAndType	foldRight:(Lscala/collection/IterableLike;Ljava/lang/Object;Lscala/Function2;)Ljava/lang/Object;
Method	scala/collection/IterableLike$class.foldRight:(Lscala/collection/IterableLike;Ljava/lang/Object;Lscala/Function2;)Ljava/lang/Object;
Asciz	find;
Asciz	(Lscala/Function1;)Lscala/Option;;
Asciz	(Lscala/collection/IterableLike;Lscala/Function1;)Lscala/Option;;
NameAndType	find:(Lscala/collection/IterableLike;Lscala/Function1;)Lscala/Option;
Method	scala/collection/IterableLike$class.find:(Lscala/collection/IterableLike;Lscala/Function1;)Lscala/Option;
Asciz	exists;
Asciz	(Lscala/Function1;)Z;
Asciz	(Lscala/collection/IterableLike;Lscala/Function1;)Z;
NameAndType	exists:(Lscala/collection/IterableLike;Lscala/Function1;)Z
Method	scala/collection/IterableLike$class.exists:(Lscala/collection/IterableLike;Lscala/Function1;)Z
Asciz	forall;
NameAndType	forall:(Lscala/collection/IterableLike;Lscala/Function1;)Z
Method	scala/collection/IterableLike$class.forall:(Lscala/collection/IterableLike;Lscala/Function1;)Z
Asciz	elements;
Asciz	(Lscala/collection/IterableLike;)Lscala/collection/Iterator;;
NameAndType	elements:(Lscala/collection/IterableLike;)Lscala/collection/Iterator;
Method	scala/collection/IterableLike$class.elements:(Lscala/collection/IterableLike;)Lscala/collection/Iterator;
Asciz	(Lscala/collection/IterableLike;Ljava/lang/Object;)Lscala/collection/Iterable;;
NameAndType	toCollection:(Lscala/collection/IterableLike;Ljava/lang/Object;)Lscala/collection/Iterable;
Method	scala/collection/IterableLike$class.toCollection:(Lscala/collection/IterableLike;Ljava/lang/Object;)Lscala/collection/Iterable;
NameAndType	thisCollection:(Lscala/collection/IterableLike;)Lscala/collection/Iterable;
Method	scala/collection/IterableLike$class.thisCollection:(Lscala/collection/IterableLike;)Lscala/collection/Iterable;
Asciz	companion;
Asciz	()Lscala/collection/generic/GenericCompanion;;
Asciz	(Lscala/collection/immutable/Iterable;)Lscala/collection/generic/GenericCompanion;;
NameAndType	companion:(Lscala/collection/immutable/Iterable;)Lscala/collection/generic/GenericCompanion;
Method	scala/collection/immutable/Iterable$class.companion:(Lscala/collection/immutable/Iterable;)Lscala/collection/generic/GenericCompanion;
Asciz	compose;
Asciz	(Lscala/Function1;Lscala/Function1;)Lscala/Function1;;
NameAndType	compose:(Lscala/Function1;Lscala/Function1;)Lscala/Function1;
Method	scala/Function1$class.compose:(Lscala/Function1;Lscala/Function1;)Lscala/Function1;
Asciz	lift;
Asciz	()Lscala/Function1;;
Asciz	(Lscala/PartialFunction;)Lscala/Function1;;
NameAndType	lift:(Lscala/PartialFunction;)Lscala/Function1;
Method	scala/PartialFunction$class.lift:(Lscala/PartialFunction;)Lscala/Function1;
Asciz	(Lscala/PartialFunction;Lscala/Function1;)Lscala/PartialFunction;;
NameAndType	andThen:(Lscala/PartialFunction;Lscala/Function1;)Lscala/PartialFunction;
Method	scala/PartialFunction$class.andThen:(Lscala/PartialFunction;Lscala/Function1;)Lscala/PartialFunction;
Asciz	k;
Asciz	orElse;
Asciz	(Lscala/PartialFunction;)Lscala/PartialFunction;;
Asciz	(Lscala/PartialFunction;Lscala/PartialFunction;)Lscala/PartialFunction;;
NameAndType	orElse:(Lscala/PartialFunction;Lscala/PartialFunction;)Lscala/PartialFunction;
Method	scala/PartialFunction$class.orElse:(Lscala/PartialFunction;Lscala/PartialFunction;)Lscala/PartialFunction;
Asciz	$minus$minus;
Asciz	(Lscala/collection/Iterator;)Lscala/collection/generic/Subtractable;;
Asciz	(Lscala/collection/generic/Subtractable;Lscala/collection/Iterator;)Lscala/collection/generic/Subtractable;;
NameAndType	$minus$minus:(Lscala/collection/generic/Subtractable;Lscala/collection/Iterator;)Lscala/collection/generic/Subtractable;
Method	scala/collection/generic/Subtractable$class.$minus$minus:(Lscala/collection/generic/Subtractable;Lscala/collection/Iterator;)Lscala/collection/generic/Subtractable;
Asciz	(Lscala/collection/Traversable;)Lscala/collection/generic/Subtractable;;
Asciz	(Lscala/collection/generic/Subtractable;Lscala/collection/Traversable;)Lscala/collection/generic/Subtractable;;
NameAndType	$minus$minus:(Lscala/collection/generic/Subtractable;Lscala/collection/Traversable;)Lscala/collection/generic/Subtractable;
Method	scala/collection/generic/Subtractable$class.$minus$minus:(Lscala/collection/generic/Subtractable;Lscala/collection/Traversable;)Lscala/collection/generic/Subtractable;
Asciz	elems;
Asciz	(Ljava/lang/Object;Ljava/lang/Object;Lscala/collection/Seq;)Lscala/collection/generic/Subtractable;;
Asciz	(Lscala/collection/generic/Subtractable;Ljava/lang/Object;Ljava/lang/Object;Lscala/collection/Seq;)Lscala/collection/generic/Subtractable;;
NameAndType	$minus:(Lscala/collection/generic/Subtractable;Ljava/lang/Object;Ljava/lang/Object;Lscala/collection/Seq;)Lscala/collection/generic/Subtractable;
Method	scala/collection/generic/Subtractable$class.$minus:(Lscala/collection/generic/Subtractable;Ljava/lang/Object;Ljava/lang/Object;Lscala/collection/Seq;)Lscala/collection/generic/Subtractable;
Asciz	elem1;
Asciz	elem2;
Asciz	(Lscala/collection/MapLike;Ljava/lang/Object;)Z;
NameAndType	equals:(Lscala/collection/MapLike;Ljava/lang/Object;)Z
Method	scala/collection/MapLike$class.equals:(Lscala/collection/MapLike;Ljava/lang/Object;)Z
Asciz	hashCode;
Asciz	(Lscala/collection/MapLike;)I;
NameAndType	hashCode:(Lscala/collection/MapLike;)I
Method	scala/collection/MapLike$class.hashCode:(Lscala/collection/MapLike;)I
Asciz	(Lscala/collection/MapLike;)Ljava/lang/String;;
NameAndType	toString:(Lscala/collection/MapLike;)Ljava/lang/String;
Method	scala/collection/MapLike$class.toString:(Lscala/collection/MapLike;)Ljava/lang/String;
Asciz	(Lscala/collection/mutable/StringBuilder;Ljava/lang/String;Ljava/lang/String;Ljava/lang/String;)Lscala/collection/mutable/StringBuilder;;
Asciz	(Lscala/collection/MapLike;Lscala/collection/mutable/StringBuilder;Ljava/lang/String;Ljava/lang/String;Ljava/lang/String;)Lscala/collection/mutable/StringBuilder;;
NameAndType	addString:(Lscala/collection/MapLike;Lscala/collection/mutable/StringBuilder;Ljava/lang/String;Ljava/lang/String;Ljava/lang/String;)Lscala/collection/mutable/StringBuilder;
Method	scala/collection/MapLike$class.addString:(Lscala/collection/MapLike;Lscala/collection/mutable/StringBuilder;Ljava/lang/String;Ljava/lang/String;Ljava/lang/String;)Lscala/collection/mutable/StringBuilder;
Asciz	mapElements;
Asciz	(Lscala/Function1;)Lscala/collection/DefaultMap;;
Asciz	(Lscala/collection/MapLike;Lscala/Function1;)Lscala/collection/DefaultMap;;
NameAndType	mapElements:(Lscala/collection/MapLike;Lscala/Function1;)Lscala/collection/DefaultMap;
Method	scala/collection/MapLike$class.mapElements:(Lscala/collection/MapLike;Lscala/Function1;)Lscala/collection/DefaultMap;
Asciz	mapValues;
NameAndType	mapValues:(Lscala/collection/MapLike;Lscala/Function1;)Lscala/collection/DefaultMap;
Method	scala/collection/MapLike$class.mapValues:(Lscala/collection/MapLike;Lscala/Function1;)Lscala/collection/DefaultMap;
Asciz	filterKeys;
NameAndType	filterKeys:(Lscala/collection/MapLike;Lscala/Function1;)Lscala/collection/DefaultMap;
Method	scala/collection/MapLike$class.filterKeys:(Lscala/collection/MapLike;Lscala/Function1;)Lscala/collection/DefaultMap;
Asciz	(Lscala/collection/MapLike;Ljava/lang/Object;)Ljava/lang/Object;;
NameAndType	default:(Lscala/collection/MapLike;Ljava/lang/Object;)Ljava/lang/Object;
Method	scala/collection/MapLike$class.default:(Lscala/collection/MapLike;Ljava/lang/Object;)Ljava/lang/Object;
Asciz	values;
Asciz	(Lscala/collection/MapLike;)Lscala/collection/Iterator;;
NameAndType	values:(Lscala/collection/MapLike;)Lscala/collection/Iterator;
Method	scala/collection/MapLike$class.values:(Lscala/collection/MapLike;)Lscala/collection/Iterator;
Asciz	valuesIterable;
Asciz	(Lscala/collection/MapLike;)Lscala/collection/Iterable;;
NameAndType	valuesIterable:(Lscala/collection/MapLike;)Lscala/collection/Iterable;
Method	scala/collection/MapLike$class.valuesIterable:(Lscala/collection/MapLike;)Lscala/collection/Iterable;
Asciz	keys;
NameAndType	keys:(Lscala/collection/MapLike;)Lscala/collection/Iterator;
Method	scala/collection/MapLike$class.keys:(Lscala/collection/MapLike;)Lscala/collection/Iterator;
Asciz	keySet;
Asciz	()Lscala/collection/Set;;
Asciz	(Lscala/collection/MapLike;)Lscala/collection/Set;;
NameAndType	keySet:(Lscala/collection/MapLike;)Lscala/collection/Set;
Method	scala/collection/MapLike$class.keySet:(Lscala/collection/MapLike;)Lscala/collection/Set;
Asciz	isDefinedAt;
NameAndType	isDefinedAt:(Lscala/collection/MapLike;Ljava/lang/Object;)Z
Method	scala/collection/MapLike$class.isDefinedAt:(Lscala/collection/MapLike;Ljava/lang/Object;)Z
Asciz	contains;
NameAndType	contains:(Lscala/collection/MapLike;Ljava/lang/Object;)Z
Method	scala/collection/MapLike$class.contains:(Lscala/collection/MapLike;Ljava/lang/Object;)Z
[...]
   0      6      1    p       Lscala/Function1;


public java.lang.Object slice(int, int);
  Signature: (II)Ljava/lang/Object;
  Code:
   Stack=3, Locals=3, Args_size=3
	aload_0
	iload_1
	iload_2
	invokestatic	Method scala/collection/IterableLike$class.slice:(Lscala/collection/IterableLike;II)Ljava/lang/Object;
	areturn
  Labels:
  LocalVariableTable: 
   Start  Length  Slot  Name   Signature
   0      7      0    this       Lscala/collection/immutable/IntMap;
   0      7      1    from       I
   0      7      2    until       I


public java.lang.Object take(int);
  Signature: (I)Ljava/lang/Object;
  Code:
   Stack=2, Locals=2, Args_size=2
	aload_0
	iload_1
	invokestatic	Method scala/collection/IterableLike$class.take:(Lscala/collection/IterableLike;I)Ljava/lang/Object;
	areturn
  Labels:
  LocalVariableTable: 
   Start  Length  Slot  Name   Signature
   0      6      0    this       Lscala/collection/immutable/IntMap;
   0      6      1    n       I


public java.lang.Object head();
  Signature: ()Ljava/lang/Object;
  Code:
   Stack=1, Locals=1, Args_size=1
	aload_0
	invokestatic	Method scala/collection/IterableLike$class.head:(Lscala/collection/IterableLike;)Ljava/lang/Object;
	areturn
  Labels:

public scala.collection.Iterable toIterable();
  Signature: ()Lscala/collection/Iterable;
  Code:
   Stack=1, Locals=1, Args_size=1
	aload_0
	invokestatic	Method scala/collection/IterableLike$class.toIterable:(Lscala/collection/IterableLike;)Lscala/collection/Iterable;
	areturn
  Labels:

public java.lang.Object reduceRight(scala.Function2);
  Signature: (Lscala/Function2;)Ljava/lang/Object;
  Code:
   Stack=2, Locals=2, Args_size=2
	aload_0
	aload_1
	invokestatic	Method scala/collection/IterableLike$class.reduceRight:(Lscala/collection/IterableLike;Lscala/Function2;)Ljava/lang/Object;
	areturn
  Labels:
  LocalVariableTable: 
   Start  Length  Slot  Name   Signature
   0      6      0    this       Lscala/collection/immutable/IntMap;
   0      6      1    op       Lscala/Function2;


public java.lang.Object foldRight(java.lang.Object, scala.Function2);
  Signature: (Ljava/lang/Object;Lscala/Function2;)Ljava/lang/Object;
  Code:
   Stack=3, Locals=3, Args_size=3
	aload_0
	aload_1
	aload_2
	invokestatic	Method scala/collection/IterableLike$class.foldRight:(Lscala/collection/IterableLike;Ljava/lang/Object;Lscala/Function2;)Ljava/lang/Object;
	areturn
  Labels:
  LocalVariableTable: 
   Start  Length  Slot  Name   Signature
   0      7      0    this       Lscala/collection/immutable/IntMap;
   0      7      1    z       Ljava/lang/Object;
   0      7      2    op       Lscala/Function2;


public scala.Option find(scala.Function1);
  Signature: (Lscala/Function1;)Lscala/Option;
  Code:
   Stack=2, Locals=2, Args_size=2
	aload_0
	aload_1
	invokestatic	Method scala/collection/IterableLike$class.find:(Lscala/collection/IterableLike;Lscala/Function1;)Lscala/Option;
	areturn
  Labels:
  LocalVariableTable: 
   Start  Length  Slot  Name   Signature
   0      6      0    this       Lscala/collection/immutable/IntMap;
   0      6      1    p       Lscala/Function1;


public boolean exists(scala.Function1);
  Signature: (Lscala/Function1;)Z
  Code:
   Stack=2, Locals=2, Args_size=2
	aload_0
	aload_1
	invokestatic	Method scala/collection/IterableLike$class.exists:(Lscala/collection/IterableLike;Lscala/Function1;)Z
	ireturn
  Labels:
  LocalVariableTable: 
   Start  Length  Slot  Name   Signature
   0      6      0    this       Lscala/collection/immutable/IntMap;
   0      6      1    p       Lscala/Function1;


public boolean forall(scala.Function1);
  Signature: (Lscala/Function1;)Z
  Code:
   Stack=2, Locals=2, Args_size=2
	aload_0
	aload_1
	invokestatic	Method scala/collection/IterableLike$class.forall:(Lscala/collection/IterableLike;Lscala/Function1;)Z
	ireturn
  Labels:
  LocalVariableTable: 
   Start  Length  Slot  Name   Signature
   0      6      0    this       Lscala/collection/immutable/IntMap;
   0      6      1    p       Lscala/Function1;


public scala.collection.Iterator elements();
  Signature: ()Lscala/collection/Iterator;
  Code:
   Stack=1, Locals=1, Args_size=1
	aload_0
	invokestatic	Method scala/collection/IterableLike$class.elements:(Lscala/collection/IterableLike;)Lscala/collection/Iterator;
	areturn
  Labels:
  Deprecated: true

public scala.collection.Iterable toCollection(java.lang.Object);
  Signature: (Ljava/lang/Object;)Lscala/collection/Iterable;
  Code:
   Stack=2, Locals=2, Args_size=2
	aload_0
	aload_1
	invokestatic	Method scala/collection/IterableLike$class.toCollection:(Lscala/collection/IterableLike;Ljava/lang/Object;)Lscala/collection/Iterable;
	areturn
  Labels:
  LocalVariableTable: 
   Start  Length  Slot  Name   Signature
   0      6      0    this       Lscala/collection/immutable/IntMap;
   0      6      1    repr       Ljava/lang/Object;


public scala.collection.Iterable thisCollection();
  Signature: ()Lscala/collection/Iterable;
  Code:
   Stack=1, Locals=1, Args_size=1
	aload_0
	invokestatic	Method scala/collection/IterableLike$class.thisCollection:(Lscala/collection/IterableLike;)Lscala/collection/Iterable;
	areturn
  Labels:

public scala.collection.generic.GenericCompanion companion();
  Signature: ()Lscala/collection/generic/GenericCompanion;
  Code:
   Stack=1, Locals=1, Args_size=1
	aload_0
	invokestatic	Method scala/collection/immutable/Iterable$class.companion:(Lscala/collection/immutable/Iterable;)Lscala/collection/generic/GenericCompanion;
	areturn
  Labels:

public scala.Function1 compose(scala.Function1);
  Signature: (Lscala/Function1;)Lscala/Function1;
  Code:
   Stack=2, Locals=2, Args_size=2
	aload_0
	aload_1
	invokestatic	Method scala/Function1$class.compose:(Lscala/Function1;Lscala/Function1;)Lscala/Function1;
	areturn
  Labels:
  LocalVariableTable: 
   Start  Length  Slot  Name   Signature
   0      6      0    this       Lscala/collection/immutable/IntMap;
   0      6      1    g       Lscala/Function1;


public scala.Function1 lift();
  Signature: ()Lscala/Function1;
  Code:
   Stack=1, Locals=1, Args_size=1
	aload_0
	invokestatic	Method scala/PartialFunction$class.lift:(Lscala/PartialFunction;)Lscala/Function1;
	areturn
  Labels:

public scala.PartialFunction andThen(scala.Function1);
  Signature: (Lscala/Function1;)Lscala/PartialFunction;
  Code:
   Stack=2, Locals=2, Args_size=2
	aload_0
	aload_1
	invokestatic	Method scala/PartialFunction$class.andThen:(Lscala/PartialFunction;Lscala/Function1;)Lscala/PartialFunction;
	areturn
  Labels:
  LocalVariableTable: 
   Start  Length  Slot  Name   Signature
   0      6      0    this       Lscala/collection/immutable/IntMap;
   0      6      1    k       Lscala/Function1;


public scala.PartialFunction orElse(scala.PartialFunction);
  Signature: (Lscala/PartialFunction;)Lscala/PartialFunction;
  Code:
   Stack=2, Locals=2, Args_size=2
	aload_0
	aload_1
	invokestatic	Method scala/PartialFunction$class.orElse:(Lscala/PartialFunction;Lscala/PartialFunction;)Lscala/PartialFunction;
	areturn
  Labels:
  LocalVariableTable: 
   Start  Length  Slot  Name   Signature
   0      6      0    this       Lscala/collection/immutable/IntMap;
   0      6      1    that       Lscala/PartialFunction;


public scala.collection.generic.Subtractable $minus$minus(scala.collection.Iterator);
  Signature: (Lscala/collection/Iterator;)Lscala/collection/generic/Subtractable;
  Code:
   Stack=2, Locals=2, Args_size=2
	aload_0
	aload_1
	invokestatic	Method scala/collection/generic/Subtractable$class.$minus$minus:(Lscala/collection/generic/Subtractable;Lscala/collection/Iterator;)Lscala/collection/generic/Subtractable;
	areturn
  Labels:
  LocalVariableTable: 
   Start  Length  Slot  Name   Signature
   0      6      0    this       Lscala/collection/immutable/IntMap;
   0      6      1    iter       Lscala/collection/Iterator;


public scala.collection.generic.Subtractable $minus$minus(scala.collection.Traversable);
  Signature: (Lscala/collection/Traversable;)Lscala/collection/generic/Subtractable;
  Code:
   Stack=2, Locals=2, Args_size=2
	aload_0
	aload_1
	invokestatic	Method scala/collection/generic/Subtractable$class.$minus$minus:(Lscala/collection/generic/Subtractable;Lscala/collection/Traversable;)Lscala/collection/generic/Subtractable;
	areturn
  Labels:
  LocalVariableTable: 
   Start  Length  Slot  Name   Signature
   0      6      0    this       Lscala/collection/immutable/IntMap;
   0      6      1    elems       Lscala/collection/Traversable;


public scala.collection.generic.Subtractable $minus(java.lang.Object, java.lang.Object, scala.collection.Seq);
  Signature: (Ljava/lang/Object;Ljava/lang/Object;Lscala/collection/Seq;)Lscala/collection/generic/Subtractable;
  Code:
   Stack=4, Locals=4, Args_size=4
	aload_0
	aload_1
	aload_2
	aload_3
	invokestatic	Method scala/collection/generic/Subtractable$class.$minus:(Lscala/collection/generic/Subtractable;Ljava/lang/Object;Ljava/lang/Object;Lscala/collection/Seq;)Lscala/collection/generic/Subtractable;
	areturn
  Labels:
  LocalVariableTable: 
   Start  Length  Slot  Name   Signature
   0      8      0    this       Lscala/collection/immutable/IntMap;
   0      8      1    elem1       Ljava/lang/Object;
   0      8      2    elem2       Ljava/lang/Object;
   0      8      3    elems       Lscala/collection/Seq;


public boolean equals(java.lang.Object);
  Signature: (Ljava/lang/Object;)Z
  Code:
   Stack=2, Locals=2, Args_size=2
	aload_0
	aload_1
	invokestatic	Method scala/collection/MapLike$class.equals:(Lscala/collection/MapLike;Ljava/lang/Object;)Z
	ireturn
  Labels:
  LocalVariableTable: 
   Start  Length  Slot  Name   Signature
   0      6      0    this       Lscala/collection/immutable/IntMap;
   0      6      1    that       Ljava/lang/Object;


public int hashCode();
  Signature: ()I
  Code:
   Stack=1, Locals=1, Args_size=1
	aload_0
	invokestatic	Method scala/collection/MapLike$class.hashCode:(Lscala/collection/MapLike;)I
	ireturn
  Labels:

public java.lang.String toString();
  Signature: ()Ljava/lang/String;
  Code:
   Stack=1, Locals=1, Args_size=1
	aload_0
	invokestatic	Method scala/collection/MapLike$class.toString:(Lscala/collection/MapLike;)Ljava/lang/String;
	areturn
  Labels:

public scala.collection.mutable.StringBuilder addString(scala.collection.mutable.StringBuilder, java.lang.String, java.lang.String, java.lang.String);
  Signature: (Lscala/collection/mutable/StringBuilder;Ljava/lang/String;Ljava/lang/String;Ljava/lang/String;)Lscala/collection/mutable/StringBuilder;
  Code:
   Stack=5, Locals=5, Args_size=5
	aload_0
	aload_1
	aload_2
	aload_3
	aload	4
	invokestatic	Method scala/collection/MapLike$class.addString:(Lscala/collection/MapLike;Lscala/collection/mutable/StringBuilder;Ljava/lang/String;Ljava/lang/String;Ljava/lang/String;)Lscala/collection/mutable/StringBuilder;
	areturn
  Labels:
  LocalVariableTable: 
   Start  Length  Slot  Name   Signature
   0      10      0    this       Lscala/collection/immutable/IntMap;
   0      10      1    b       Lscala/collection/mutable/StringBuilder;
   0      10      2    start       Ljava/lang/String;
   0      10      3    sep       Ljava/lang/String;
   0      10      4    end       Ljava/lang/String;


public scala.collection.DefaultMap mapElements(scala.Function1);
  Signature: (Lscala/Function1;)Lscala/collection/DefaultMap;
  Code:
   Stack=2, Locals=2, Args_size=2
	aload_0
	aload_1
	invokestatic	Method scala/collection/MapLike$class.mapElements:(Lscala/collection/MapLike;Lscala/Function1;)Lscala/collection/DefaultMap;
	areturn
  Labels:
  LocalVariableTable: 
   Start  Length  Slot  Name   Signature
   0      6      0    this       Lscala/collection/immutable/IntMap;
   0      6      1    f       Lscala/Function1;

  Deprecated: true

public scala.collection.DefaultMap mapValues(scala.Function1);
  Signature: (Lscala/Function1;)Lscala/collection/DefaultMap;
  Code:
   Stack=2, Locals=2, Args_size=2
	aload_0
	aload_1
	invokestatic	Method scala/collection/MapLike$class.mapValues:(Lscala/collection/MapLike;Lscala/Function1;)Lscala/collection/DefaultMap;
	areturn
  Labels:
  LocalVariableTable: 
   Start  Length  Slot  Name   Signature
   0      6      0    this       Lscala/collection/immutable/IntMap;
   0      6      1    f       Lscala/Function1;


public scala.collection.DefaultMap filterKeys(scala.Function1);
  Signature: (Lscala/Function1;)Lscala/collection/DefaultMap;
  Code:
   Stack=2, Locals=2, Args_size=2
	aload_0
	aload_1
	invokestatic	Method scala/collection/MapLike$class.filterKeys:(Lscala/collection/MapLike;Lscala/Function1;)Lscala/collection/DefaultMap;
	areturn
  Labels:
  LocalVariableTable: 
   Start  Length  Slot  Name   Signature
   0      6      0    this       Lscala/collection/immutable/IntMap;
   0      6      1    p       Lscala/Function1;


public java.lang.Object default(java.lang.Object);
  Signature: (Ljava/lang/Object;)Ljava/lang/Object;
  Code:
   Stack=2, Locals=2, Args_size=2
	aload_0
	aload_1
	invokestatic	Method scala/collection/MapLike$class.default:(Lscala/collection/MapLike;Ljava/lang/Object;)Ljava/lang/Object;
	areturn
  Labels:
  LocalVariableTable: 
   Start  Length  Slot  Name   Signature
   0      6      0    this       Lscala/collection/immutable/IntMap;
   0      6      1    key       Ljava/lang/Object;


public scala.collection.Iterator values();
  Signature: ()Lscala/collection/Iterator;
  Code:
   Stack=1, Locals=1, Args_size=1
	aload_0
	invokestatic	Method scala/collection/MapLike$class.values:(Lscala/collection/MapLike;)Lscala/collection/Iterator;
	areturn
  Labels:
  Deprecated: true

public scala.collection.Iterable valuesIterable();
  Signature: ()Lscala/collection/Iterable;
  Code:
   Stack=1, Locals=1, Args_size=1
	aload_0
	invokestatic	Method scala/collection/MapLike$class.valuesIterable:(Lscala/collection/MapLike;)Lscala/collection/Iterable;
	areturn
  Labels:

public scala.collection.Iterator keys();
  Signature: ()Lscala/collection/Iterator;
  Code:
   Stack=1, Locals=1, Args_size=1
	aload_0
	invokestatic	Method scala/collection/MapLike$class.keys:(Lscala/collection/MapLike;)Lscala/collection/Iterator;
	areturn
  Labels:
  Deprecated: true

public scala.collection.Set keySet();
  Signature: ()Lscala/collection/Set;
  Code:
   Stack=1, Locals=1, Args_size=1
	aload_0
	invokestatic	Method scala/collection/MapLike$class.keySet:(Lscala/collection/MapLike;)Lscala/collection/Set;
	areturn
  Labels:

public boolean isDefinedAt(java.lang.Object);
  Signature: (Ljava/lang/Object;)Z
  Code:
   Stack=2, Locals=2, Args_size=2
	aload_0
	aload_1
	invokestatic	Method scala/collection/MapLike$class.isDefinedAt:(Lscala/collection/MapLike;Ljava/lang/Object;)Z
	ireturn
  Labels:
  LocalVariableTable: 
   Start  Length  Slot  Name   Signature
   0      6      0    this       Lscala/collection/immutable/IntMap;
   0      6      1    key       Ljava/lang/Object;


public boolean contains(java.lang.Object);
  Signature: (Ljava/lang/Object;)Z
  Code:
   Stack=2, Locals=2, Args_size=2
	aload_0
	aload_1
	invokestatic	Method scala/collection/MapLike$class.contains:(Lscala/collection/MapLike;Ljava/lang/Object;)Z
	ireturn
  Labels:
  LocalVariableTable: 
   Start  Length  Slot  Name   Signature
   0      6      0    this       Lscala/collection/immutable/IntMap;
   0      6      1    key       Ljava/lang/Object;


public scala.collection.mutable.Builder newBuilder();
  Signature: ()Lscala/collection/mutable/Builder;
  Code:
   Stack=1, Locals=1, Args_size=1
	aload_0
	invokestatic	Method scala/collection/MapLike$class.newBuilder:(Lscala/collection/MapLike;)Lscala/collection/mutable/Builder;
	areturn
  Labels:

public scala.collection.immutable.Map filterNot(scala.Function1);
  Signature: (Lscala/Function1;)Lscala/collection/immutable/Map;
  Code:
   Stack=2, Locals=2, Args_size=2
	aload_0
	aload_1
	invokestatic	Method scala/collection/immutable/MapLike$class.filterNot:(Lscala/collection/immutable/MapLike;Lscala/Function1;)Lscala/collection/immutable/Map;
	areturn
  Labels:
  LocalVariableTable: 
   Start  Length  Slot  Name   Signature
   0      6      0    this       Lscala/collection/immutable/IntMap;
   0      6      1    p       Lscala/Function1;


public java.lang.Object transform(scala.Function2, scala.collection.generic.CanBuildFrom);
  Signature: (Lscala/Function2;Lscala/collection/generic/CanBuildFrom;)Ljava/lang/Object;
  Code:
   Stack=3, Locals=3, Args_size=3
	aload_0
	aload_1
	aload_2
	invokestatic	Method scala/collection/immutable/MapLike$class.transform:(Lscala/collection/immutable/MapLike;Lscala/Function2;Lscala/collection/generic/CanBuildFrom;)Ljava/lang/Object;
	areturn
  Labels:
  LocalVariableTable: 
   Start  Length  Slot  Name   Signature
   0      7      0    this       Lscala/collection/immutable/IntMap;
   0      7      1    f       Lscala/Function2;
   0      7      2    bf       Lscala/collection/generic/CanBuildFrom;


public scala.collection.immutable.Map $plus$plus(scala.collection.Iterator);
  Signature: (Lscala/collection/Iterator;)Lscala/collection/immutable/Map;
  Code:
   Stack=2, Locals=2, Args_size=2
	aload_0
	aload_1
	invokestatic	Method scala/collection/immutable/MapLike$class.$plus$plus:(Lscala/collection/immutable/MapLike;Lscala/collection/Iterator;)Lscala/collection/immutable/Map;
	areturn
  Labels:
  LocalVariableTable: 
   Start  Length  Slot  Name   Signature
   0      6      0    this       Lscala/collection/immutable/IntMap;
   0      6      1    iter       Lscala/collection/Iterator;


public scala.collection.immutable.Map $plus$plus(scala.collection.Traversable);
  Signature: (Lscala/collection/Traversable;)Lscala/collection/immutable/Map;
  Code:
   Stack=2, Locals=2, Args_size=2
	aload_0
	aload_1
	invokestatic	Method scala/collection/immutable/MapLike$class.$plus$plus:(Lscala/collection/immutable/MapLike;Lscala/collection/Traversable;)Lscala/collection/immutable/Map;
	areturn
  Labels:
  LocalVariableTable: 
   Start  Length  Slot  Name   Signature
   0      6      0    this       Lscala/collection/immutable/IntMap;
   0      6      1    elems       Lscala/collection/Traversable;


public scala.collection.immutable.Map $plus(scala.Tuple2, scala.Tuple2, scala.collection.Seq);
  Signature: (Lscala/Tuple2;Lscala/Tuple2;Lscala/collection/Seq;)Lscala/collection/immutable/Map;
  Code:
   Stack=4, Locals=4, Args_size=4
	aload_0
	aload_1
	aload_2
	aload_3
	invokestatic	Method scala/collection/immutable/MapLike$class.$plus:(Lscala/collection/immutable/MapLike;Lscala/Tuple2;Lscala/Tuple2;Lscala/collection/Seq;)Lscala/collection/immutable/Map;
	areturn
  Labels:
  LocalVariableTable: 
   Start  Length  Slot  Name   Signature
   0      8      0    this       Lscala/collection/immutable/IntMap;
   0      8      1    elem1       Lscala/Tuple2;
   0      8      2    elem2       Lscala/Tuple2;
   0      8      3    elems       Lscala/collection/Seq;


public scala.collection.immutable.Map withDefaultValue(java.lang.Object);
  Signature: (Ljava/lang/Object;)Lscala/collection/immutable/Map;
  Code:
   Stack=2, Locals=2, Args_size=2
	aload_0
	aload_1
	invokestatic	Method scala/collection/immutable/Map$class.withDefaultValue:(Lscala/collection/immutable/Map;Ljava/lang/Object;)Lscala/collection/immutable/Map;
	areturn
  Labels:
  LocalVariableTable: 
   Start  Length  Slot  Name   Signature
   0      6      0    this       Lscala/collection/immutable/IntMap;
   0      6      1    d       Ljava/lang/Object;


public scala.collection.immutable.Map withDefault(scala.Function1);
  Signature: (Lscala/Function1;)Lscala/collection/immutable/Map;
  Code:
   Stack=2, Locals=2, Args_size=2
	aload_0
	aload_1
	invokestatic	Method scala/collection/immutable/Map$class.withDefault:(Lscala/collection/immutable/Map;Lscala/Function1;)Lscala/collection/immutable/Map;
	areturn
  Labels:
  LocalVariableTable: 
   Start  Length  Slot  Name   Signature
   0      6      0    this       Lscala/collection/immutable/IntMap;
   0      6      1    d       Lscala/Function1;


}

