Compiled from "IntMap.scala"
public abstract class scala.collection.immutable.IntMap extends java.lang.Object implements scala.collection.immutable.Map,scala.collection.generic.ImmutableMapTemplate,scala.ScalaObject
  SourceFile: "IntMap.scala"
  Signature: length = 0x2
   04 20 
  ScalaSig: length = 0x108B
   05 00 FFFFFF84 15 07 05 01 02 FFFFFF88 02 09 01 06 49 6E 74
   4D 61 70 0A 02 03 04 01 09 69 6D 6D 75 74 61 62
   6C 65 0A 02 05 06 01 0A 63 6F 6C 6C 65 63 74 69
   6F 6E 0A 01 07 01 05 73 63 61 6C 61 03 00 10 02
   0A 0B 0D 01 02 06 08 0C 02 FFFFFF84 FFFFFF80 FFFFFF80 FFFFFF88 02 0D 02
   06 49 6E 74 4D 61 70 13 03 0B 0E 16 10 02 0F 14
   0D 01 10 0A 02 11 12 01 04 6C 61 6E 67 0A 01 13
   01 04 6A 61 76 61 09 02 15 10 02 06 4F 62 6A 65
   63 74 10 02 17 18 0D 01 06 09 02 19 06 02 0B 53
   63 61 6C 61 4F 62 6A 65 63 74 08 05 1B 0B FFFFFF84 00
   1C 01 06 3C 69 6E 69 74 3E 14 01 09 08 05 1E 0B
   FFFFFF84 00 1F 01 05 65 6D 70 74 79 15 03 20 FFFFFF83 43 10
   04 0A 21 FFFFFF83 42 06 05 0C 02 FFFFFF81 10 22 15 02 23 2C
   13 05 21 0E 24 35 16 10 04 0A 25 27 2A 09 02 26
   02 02 03 4D 61 70 10 02 17 28 09 02 29 06 02 03
   49 6E 74 10 02 2B 2C 0C 00 04 08 2D 21 FFFFFF84 FFFFFF80 FFFFFF84
   FFFFFFC2 00 2E 02 01 54 11 02 2F 32 10 02 17 30 09 02
   31 06 02 07 4E 6F 74 68 69 6E 67 10 02 17 33 09
   02 34 06 02 03 41 6E 79 10 05 36 39 27 2A 3B 0D
   01 37 0A 02 38 04 01 07 67 65 6E 65 72 69 63 09
   02 3A 37 02 14 49 6D 6D 75 74 61 62 6C 65 4D 61
   70 54 65 6D 70 6C 61 74 65 10 03 0A 21 2A 08 05
   1B 21 FFFFFF84 00 3D 14 01 3B 08 05 1E 21 FFFFFF84 20 3F 15
   01 3B 08 05 41 21 FFFFFF84 20 42 01 06 74 6F 4C 69 73
   74 15 01 43 10 03 44 4C 4F 0E 02 45 4A 0E 02 46
   49 0D 01 47 0A 02 48 08 01 06 3C 72 6F 6F 74 3E
   09 01 07 09 02 4B 06 01 07 70 61 63 6B 61 67 65
   09 02 4D 4E 02 04 4C 69 73 74 0A 02 4B 06 10 04
   17 50 27 2A 09 02 51 06 02 06 54 75 70 6C 65 32
   08 05 53 21 FFFFFF84 00 54 01 08 69 74 65 72 61 74 6F
   72 15 01 55 10 03 44 56 4F 09 02 57 4E 02 08 49
   74 65 72 61 74 6F 72 08 05 59 21 FFFFFF84 22 5A 01 07
   66 6F 72 65 61 63 68 15 02 5B 65 14 02 5C 5F 10
   02 17 5D 09 02 5E 06 02 04 55 6E 69 74 08 05 60
   58 FFFFFFC0 00 61 01 01 66 10 04 17 62 4F 64 09 02 63
   06 02 09 46 75 6E 63 74 69 6F 6E 31 10 02 2B 65
   04 08 66 58 FFFFFF84 FFFFFF80 FFFFFF80 FFFFFFC2 00 2E 02 01 55 08 05 68
   21 FFFFFF84 20 69 01 0C 6B 65 79 73 49 74 65 72 61 74
   6F 72 15 01 6A 10 03 44 56 27 08 05 6C 21 FFFFFF84 02
   6D 01 0A 66 6F 72 65 61 63 68 4B 65 79 14 02 5C
   6E 08 05 60 6B FFFFFFC0 00 6F 10 04 17 62 27 5C 08 05
   71 21 FFFFFF84 20 72 01 0E 76 61 6C 75 65 73 49 74 65
   72 61 74 6F 72 15 01 73 10 03 44 56 2A 08 05 75
   21 FFFFFF84 02 76 01 0C 66 6F 72 65 61 63 68 56 61 6C
   75 65 14 02 5C 77 08 05 60 74 FFFFFFC0 00 78 10 04 17
   62 2A 5C 08 05 7A 21 FFFFFF84 20 7B 01 0C 73 74 72 69
   6E 67 50 72 65 66 69 78 15 01 7C 10 02 0F 7D 09
   02 7E 10 02 06 53 74 72 69 6E 67 08 07 FFFFFF81 00 21
   FFFFFF84 20 FFFFFF81 01 01 07 69 73 45 6D 70 74 79 15 02 FFFFFF81
   02 10 03 17 FFFFFF81 03 09 03 FFFFFF81 04 06 02 07 42 6F 6F
   6C 65 61 6E 08 07 FFFFFF81 06 21 FFFFFF84 20 FFFFFF81 07 01 06 66
   69 6C 74 65 72 14 03 3B FFFFFF81 08 08 07 60 FFFFFF81 05 FFFFFFC0
   00 FFFFFF81 09 10 05 17 62 4F FFFFFF81 02 08 07 FFFFFF81 0B 21 FFFFFF84
   00 FFFFFF81 0C 01 09 74 72 61 6E 73 66 6F 72 6D 15 04
   FFFFFF81 0D FFFFFF81 10 14 04 FFFFFF81 0E FFFFFF81 12 10 04 0A 21 FFFFFF81 0F
   10 03 2B FFFFFF81 10 04 0A FFFFFF81 11 FFFFFF81 0A FFFFFF84 FFFFFF80 FFFFFF80 FFFFFFC2 00
   2E 02 01 53 08 07 60 FFFFFF81 0A FFFFFFC0 00 FFFFFF81 13 10 07 17
   FFFFFF81 14 27 2A FFFFFF81 0F 09 03 FFFFFF81 15 06 02 09 46 75 6E
   63 74 69 6F 6E 32 08 07 FFFFFF81 17 21 FFFFFF84 22 FFFFFF81 18 01
   04 73 69 7A 65 15 01 27 08 07 FFFFFF81 1A 21 FFFFFF84 02 FFFFFF81
   1B 01 03 67 65 74 14 04 FFFFFF81 1C FFFFFF81 1F 10 04 17 FFFFFF81
   1D 2A 09 03 FFFFFF81 1E 06 02 06 4F 70 74 69 6F 6E 08
   07 FFFFFF81 20 FFFFFF81 19 FFFFFFC0 00 27 01 03 6B 65 79 08 07 FFFFFF81
   22 21 FFFFFF84 22 FFFFFF81 23 01 09 67 65 74 4F 72 45 6C 73
   65 15 04 FFFFFF81 24 FFFFFF81 26 14 06 FFFFFF81 25 FFFFFF81 28 FFFFFF81 29 10
   03 2B FFFFFF81 26 04 0B FFFFFF81 11 FFFFFF81 21 FFFFFF84 FFFFFF80 FFFFFF80 FFFFFFC2 00 FFFFFF81
   27 11 02 2A 32 08 07 FFFFFF81 20 FFFFFF81 21 FFFFFFC0 00 27 08 09
   FFFFFF81 2A FFFFFF81 21 FFFFFF84 FFFFFFC0 00 FFFFFF81 2B 01 07 64 65 66 61 75
   6C 74 10 05 17 FFFFFF81 2C FFFFFF81 25 09 03 FFFFFF81 2D 06 02 08
   3C 62 79 6E 61 6D 65 3E 08 07 FFFFFF81 2F 21 FFFFFF84 22 FFFFFF81
   30 01 05 61 70 70 6C 79 14 03 2A FFFFFF81 31 08 07 FFFFFF81
   20 FFFFFF81 2E FFFFFFC0 00 27 08 07 FFFFFF81 33 21 FFFFFF84 00 FFFFFF81 34 01
   05 24 70 6C 75 73 15 04 FFFFFF81 35 FFFFFF81 38 14 04 FFFFFF81 36
   FFFFFF81 39 10 04 0A 21 FFFFFF81 37 10 03 2B FFFFFF81 38 04 0B FFFFFF81
   11 FFFFFF81 32 FFFFFF84 FFFFFF80 FFFFFF80 FFFFFFC2 00 FFFFFF81 27 08 08 FFFFFF81 3A FFFFFF81 32
   FFFFFFC0 00 FFFFFF81 3B 01 02 6B 76 10 05 17 50 27 FFFFFF81 37 08
   07 FFFFFF81 3D 21 FFFFFF84 20 FFFFFF81 3E 01 07 75 70 64 61 74 65
   64 15 04 FFFFFF81 3F FFFFFF81 42 14 06 FFFFFF81 40 FFFFFF81 43 FFFFFF81 44 10
   04 0A 21 FFFFFF81 41 10 03 2B FFFFFF81 42 04 0B FFFFFF81 11 FFFFFF81 3C
   FFFFFF84 FFFFFF80 FFFFFF80 FFFFFFC2 00 FFFFFF81 27 08 07 FFFFFF81 20 FFFFFF81 3C FFFFFFC0 00 27
   08 08 FFFFFF81 45 FFFFFF81 3C FFFFFFC0 00 FFFFFF81 41 01 05 76 61 6C 75
   65 08 07 FFFFFF81 47 21 FFFFFF84 20 FFFFFF81 48 01 06 75 70 64 61
   74 65 15 04 FFFFFF81 49 FFFFFF81 4C 14 06 FFFFFF81 4A FFFFFF81 4D FFFFFF81 4E
   10 04 0A 21 FFFFFF81 4B 10 03 2B FFFFFF81 4C 04 0B FFFFFF81 11 FFFFFF81
   46 FFFFFF84 FFFFFF80 FFFFFF80 FFFFFFC2 00 FFFFFF81 27 08 07 FFFFFF81 20 FFFFFF81 46 FFFFFFC0 00
   27 08 08 FFFFFF81 45 FFFFFF81 46 FFFFFFC0 00 FFFFFF81 4B 28 06 FFFFFF81 46 FFFFFF81
   50 FFFFFF81 53 10 03 17 FFFFFF81 51 09 03 FFFFFF81 52 06 02 0A 64
   65 70 72 65 63 61 74 65 64 21 02 FFFFFF81 54 01 15 75
   73 65 20 60 75 70 64 61 74 65 64 27 20 69 6E 73
   74 65 61 64 08 07 FFFFFF81 56 21 FFFFFF84 00 FFFFFF81 57 01 0A 75
   70 64 61 74 65 57 69 74 68 15 04 FFFFFF81 58 FFFFFF81 5B 14
   08 FFFFFF81 59 FFFFFF81 5C FFFFFF81 5D FFFFFF81 5E 10 04 0A 21 FFFFFF81 5A 10
   03 2B FFFFFF81 5B 04 0B FFFFFF81 11 FFFFFF81 55 FFFFFF84 FFFFFF80 FFFFFF80 FFFFFFC2 00 FFFFFF81
   27 08 07 FFFFFF81 20 FFFFFF81 55 FFFFFFC0 00 27 08 08 FFFFFF81 45 FFFFFF81 55
   FFFFFFC0 00 FFFFFF81 5A 08 07 60 FFFFFF81 55 FFFFFFC0 00 FFFFFF81 5F 10 08 17
   FFFFFF81 14 2A FFFFFF81 5A FFFFFF81 5A 08 07 FFFFFF81 61 21 FFFFFF84 00 FFFFFF81 62
   01 06 24 6D 69 6E 75 73 14 03 3B FFFFFF81 63 08 07 FFFFFF81
   20 FFFFFF81 60 FFFFFFC0 00 27 08 07 FFFFFF81 65 21 FFFFFF84 00 FFFFFF81 66 01
   0E 6D 6F 64 69 66 79 4F 72 52 65 6D 6F 76 65 15
   04 FFFFFF81 67 FFFFFF81 6A 14 04 FFFFFF81 68 FFFFFF81 6B 10 04 0A 21 FFFFFF81
   69 10 03 2B FFFFFF81 6A 04 0A FFFFFF81 11 FFFFFF81 64 FFFFFF84 FFFFFF80 FFFFFF80 FFFFFFC2
   00 2E 08 07 60 FFFFFF81 64 FFFFFFC0 00 FFFFFF81 6C 10 07 17 FFFFFF81 14
   27 2A FFFFFF81 6D 10 05 17 FFFFFF81 1D FFFFFF81 69 08 07 FFFFFF81 6F 21
   FFFFFF84 00 FFFFFF81 70 01 09 75 6E 69 6F 6E 57 69 74 68 15
   04 FFFFFF81 71 FFFFFF81 74 14 06 FFFFFF81 72 FFFFFF81 75 FFFFFF81 77 10 04 0A
   21 FFFFFF81 73 10 03 2B FFFFFF81 74 04 0B FFFFFF81 11 FFFFFF81 6E FFFFFF84 FFFFFF80
   FFFFFF80 FFFFFFC2 00 FFFFFF81 27 08 08 FFFFFF81 76 FFFFFF81 6E FFFFFFC0 00 FFFFFF81 72 01
   04 74 68 61 74 08 07 60 FFFFFF81 6E FFFFFFC0 00 FFFFFF81 78 10 0A
   17 FFFFFF81 79 27 FFFFFF81 73 FFFFFF81 73 FFFFFF81 73 09 03 FFFFFF81 7A 06 02
   09 46 75 6E 63 74 69 6F 6E 33 08 07 FFFFFF81 7C 21 FFFFFF84
   00 FFFFFF81 7D 01 10 69 6E 74 65 72 73 65 63 74 69 6F
   6E 57 69 74 68 15 06 FFFFFF81 7E FFFFFF82 06 FFFFFF82 01 14 06 FFFFFF81
   7F FFFFFF82 03 FFFFFF82 07 10 04 0A 21 FFFFFF82 00 10 03 2B FFFFFF82 01
   04 0A FFFFFF82 02 FFFFFF81 7B FFFFFF84 FFFFFF80 FFFFFF80 FFFFFFC2 00 2E 02 01 52 08
   08 FFFFFF81 76 FFFFFF81 7B FFFFFFC0 00 FFFFFF82 04 10 04 0A 21 FFFFFF82 05 10
   03 2B FFFFFF82 06 04 0A FFFFFF81 11 FFFFFF81 7B FFFFFF84 FFFFFF80 FFFFFF80 FFFFFFC2 00 2E
   08 07 60 FFFFFF81 7B FFFFFFC0 00 FFFFFF82 08 10 09 17 FFFFFF81 79 27 2A
   FFFFFF82 05 FFFFFF82 00 08 07 FFFFFF82 0A 21 FFFFFF84 00 FFFFFF82 0B 01 0C 69
   6E 74 65 72 73 65 63 74 69 6F 6E 15 04 FFFFFF82 0C FFFFFF82
   10 14 03 3B FFFFFF82 0D 08 08 FFFFFF81 76 FFFFFF82 09 FFFFFFC0 00 FFFFFF82 0E
   10 04 0A 21 FFFFFF82 0F 10 03 2B FFFFFF82 10 04 0A FFFFFF82 02 FFFFFF82
   09 FFFFFF84 FFFFFF80 FFFFFF80 FFFFFFC2 00 2E 08 07 FFFFFF82 12 21 FFFFFF84 00 FFFFFF82 13
   01 0A 24 70 6C 75 73 24 70 6C 75 73 15 04 FFFFFF82 14
   FFFFFF82 17 14 04 FFFFFF82 15 FFFFFF82 18 10 04 0A 21 FFFFFF82 16 10 03
   2B FFFFFF82 17 04 0B FFFFFF81 11 FFFFFF82 11 FFFFFF84 FFFFFF80 FFFFFF80 FFFFFFC2 00 FFFFFF81 27
   08 08 FFFFFF81 76 FFFFFF82 11 FFFFFFC0 00 FFFFFF82 15 08 07 FFFFFF82 1A 21 FFFFFF84
   02 FFFFFF81 18 01 08 66 69 72 73 74 4B 65 79 08 07 FFFFFF82
   1C 21 FFFFFF84 02 FFFFFF81 18 01 07 6C 61 73 74 4B 65 79 29
   07 21 FFFFFF82 1E FFFFFF82 41 FFFFFF82 78 06 0B FFFFFF82 1F 0B FFFFFF84 FFFFFF80 FFFFFF80
   FFFFFF88 42 02 FFFFFF82 20 02 03 4E 69 6C 13 07 FFFFFF82 1E FFFFFF82 21
   16 FFFFFF82 22 10 03 0A 21 2F 10 03 17 FFFFFF82 23 09 03 FFFFFF82
   24 06 02 07 50 72 6F 64 75 63 74 08 07 1B FFFFFF82 1E
   FFFFFF84 00 FFFFFF82 26 14 02 FFFFFF82 27 10 04 FFFFFF82 28 FFFFFF82 1E 0D 01
   0B 08 08 FFFFFF82 2A FFFFFF82 1E FFFFFF84 20 FFFFFF82 2B 01 06 65 71 75
   61 6C 73 14 04 FFFFFF81 02 FFFFFF82 2C 08 07 FFFFFF81 76 FFFFFF82 29 FFFFFFC0
   00 32 08 0A FFFFFF82 2E FFFFFF82 1E FFFFFF84 FFFFFF80 FFFFFF80 FFFFFF84 20 7B 01 0D
   70 72 6F 64 75 63 74 50 72 65 66 69 78 08 0B FFFFFF82
   30 FFFFFF82 1E FFFFFF84 FFFFFF80 FFFFFF80 FFFFFF84 20 FFFFFF81 18 01 0C 70 72 6F 64
   75 63 74 41 72 69 74 79 08 0B FFFFFF82 32 FFFFFF82 1E FFFFFF84 FFFFFF80
   FFFFFF80 FFFFFF84 20 FFFFFF82 33 01 0E 70 72 6F 64 75 63 74 45 6C
   65 6D 65 6E 74 14 03 32 FFFFFF82 34 08 09 FFFFFF82 35 FFFFFF82 31
   FFFFFF81 FFFFFF80 FFFFFFC0 00 27 01 03 78 24 31 08 0B FFFFFF82 37 FFFFFF82 1E
   FFFFFF84 FFFFFF80 FFFFFF80 FFFFFF84 20 FFFFFF82 38 01 08 63 61 6E 45 71 75 61
   6C 14 04 FFFFFF81 02 FFFFFF82 39 08 09 FFFFFF82 35 FFFFFF82 36 FFFFFF81 FFFFFF80 FFFFFFC0
   00 32 08 0B FFFFFF82 3B FFFFFF82 1E FFFFFF84 FFFFFF80 FFFFFF80 FFFFFF84 08 FFFFFF82 3C 01
   0B 72 65 61 64 52 65 73 6F 6C 76 65 14 01 0E 28
   04 FFFFFF82 1E FFFFFF82 3E 10 03 17 FFFFFF82 3F 09 03 FFFFFF82 40 06 02
   0C 73 65 72 69 61 6C 69 7A 61 62 6C 65 06 07 FFFFFF82
   42 0B 40 02 FFFFFF82 43 02 03 54 69 70 15 04 FFFFFF82 44 FFFFFF82
   47 13 07 FFFFFF82 41 FFFFFF82 45 16 FFFFFF82 22 10 04 0A 21 FFFFFF82 46
   10 03 2B FFFFFF82 47 04 09 2D FFFFFF82 41 FFFFFF84 FFFFFF80 FFFFFF84 FFFFFFC2 00 2E
   08 0B FFFFFF81 20 FFFFFF82 41 FFFFFF82 FFFFFFCA FFFFFF80 FFFFFF84 00 FFFFFF81 18 08 0A FFFFFF82
   4A FFFFFF82 41 FFFFFF82 FFFFFF88 FFFFFFA0 FFFFFF80 04 27 01 04 6B 65 79 20 08
   0B FFFFFF81 45 FFFFFF82 41 FFFFFF82 FFFFFFCA FFFFFF80 FFFFFF84 00 FFFFFF82 4C 15 02 FFFFFF82 46
   08 0B FFFFFF82 4E FFFFFF82 41 FFFFFF82 FFFFFF88 FFFFFFA0 FFFFFF80 04 FFFFFF82 46 01 06 76
   61 6C 75 65 20 08 07 1B FFFFFF82 41 FFFFFF84 00 FFFFFF82 50 14 06
   FFFFFF82 51 FFFFFF82 52 FFFFFF82 53 10 06 FFFFFF82 28 FFFFFF82 41 FFFFFF82 46 08 07
   FFFFFF81 20 FFFFFF82 4F FFFFFFC0 00 27 08 08 FFFFFF81 45 FFFFFF82 4F FFFFFFC0 00 FFFFFF82
   46 08 08 FFFFFF82 55 FFFFFF82 41 FFFFFF84 00 FFFFFF82 56 01 09 77 69 74
   68 56 61 6C 75 65 15 04 FFFFFF82 57 FFFFFF82 5B 14 04 FFFFFF82 58
   FFFFFF82 5C 10 06 FFFFFF82 59 FFFFFF82 41 FFFFFF82 5A 0E 02 0A 00 10 03
   2B FFFFFF82 5B 04 0A FFFFFF81 11 FFFFFF82 54 FFFFFF84 FFFFFF80 FFFFFF80 FFFFFFC2 00 2E 08
   08 FFFFFF82 5D FFFFFF82 54 FFFFFFC0 00 FFFFFF82 5A 01 01 73 08 0A FFFFFF82 5F
   FFFFFF82 41 FFFFFF81 FFFFFF80 FFFFFF84 00 FFFFFF82 60 01 04 63 6F 70 79 15 04
   FFFFFF82 61 FFFFFF82 64 14 06 FFFFFF82 62 FFFFFF82 65 FFFFFF82 6A 10 06 FFFFFF82 28
   FFFFFF82 41 FFFFFF82 63 10 03 2B FFFFFF82 64 04 09 2D FFFFFF82 5E FFFFFF84 FFFFFF80
   FFFFFF80 FFFFFFC2 00 2E 08 0B FFFFFF82 66 FFFFFF81 20 FFFFFF82 5E FFFFFF90 FFFFFF80 FFFFFFC0 00
   27 08 0A FFFFFF82 67 FFFFFF82 41 FFFFFF91 FFFFFF80 FFFFFF84 00 FFFFFF82 68 01 0E 63
   6F 70 79 24 64 65 66 61 75 6C 74 24 31 15 03 27
   FFFFFF82 69 04 09 2D FFFFFF82 66 FFFFFF84 FFFFFF80 FFFFFF80 FFFFFFC2 00 2E 08 0C FFFFFF82
   6B FFFFFF81 45 FFFFFF82 5E FFFFFF90 FFFFFF80 FFFFFFC0 00 FFFFFF82 63 08 0A FFFFFF82 6C FFFFFF82
   41 FFFFFF91 FFFFFF80 FFFFFF84 00 FFFFFF82 6D 01 0E 63 6F 70 79 24 64 65
   66 61 75 6C 74 24 32 15 04 FFFFFF82 46 FFFFFF82 6E 04 09 2D
   FFFFFF82 6B FFFFFF84 FFFFFF80 FFFFFF80 FFFFFFC2 00 2E 08 0A FFFFFF82 2E FFFFFF82 41 FFFFFF84 FFFFFF80
   FFFFFF80 FFFFFF84 20 7B 08 0B FFFFFF82 30 FFFFFF82 41 FFFFFF84 FFFFFF80 FFFFFF80 FFFFFF84 20 FFFFFF81
   18 08 0B FFFFFF82 32 FFFFFF82 41 FFFFFF84 FFFFFF80 FFFFFF80 FFFFFF84 20 FFFFFF82 72 14 03
   32 FFFFFF82 73 08 09 FFFFFF82 35 FFFFFF82 71 FFFFFF81 FFFFFF80 FFFFFFC0 00 27 08 0B
   FFFFFF82 37 FFFFFF82 41 FFFFFF84 FFFFFF80 FFFFFF80 FFFFFF84 20 FFFFFF82 75 14 04 FFFFFF81 02 FFFFFF82
   76 08 09 FFFFFF82 35 FFFFFF82 74 FFFFFF81 FFFFFF80 FFFFFFC0 00 32 28 04 FFFFFF82 41
   FFFFFF82 3E 06 07 FFFFFF82 79 0B 40 02 FFFFFF82 7A 02 03 42 69 6E
   15 04 FFFFFF82 7B FFFFFF82 7E 13 07 FFFFFF82 78 FFFFFF82 7C 16 FFFFFF82 22 10
   04 0A 21 FFFFFF82 7D 10 03 2B FFFFFF82 7E 04 09 2D FFFFFF82 78 FFFFFF84
   FFFFFF80 FFFFFF84 FFFFFFC2 00 2E 08 0B FFFFFF83 00 FFFFFF82 78 FFFFFF82 FFFFFFCA FFFFFF80 FFFFFF84 00
   FFFFFF81 18 01 06 70 72 65 66 69 78 08 0A FFFFFF83 02 FFFFFF82 78
   FFFFFF82 FFFFFF88 FFFFFFA0 FFFFFF80 04 27 01 07 70 72 65 66 69 78 20 08
   0B FFFFFF83 04 FFFFFF82 78 FFFFFF82 FFFFFFCA FFFFFF80 FFFFFF84 00 FFFFFF81 18 01 04 6D 61
   73 6B 08 0A FFFFFF83 06 FFFFFF82 78 FFFFFF82 FFFFFF88 FFFFFFA0 FFFFFF80 04 27 01 05
   6D 61 73 6B 20 08 0B FFFFFF83 08 FFFFFF82 78 FFFFFF82 FFFFFFCA FFFFFF80 FFFFFF84 00
   FFFFFF83 09 01 04 6C 65 66 74 15 02 FFFFFF82 7C 08 0B FFFFFF83 0B
   FFFFFF82 78 FFFFFF82 FFFFFF88 FFFFFFA0 FFFFFF80 04 FFFFFF82 7C 01 05 6C 65 66 74 20
   08 0B FFFFFF83 0D FFFFFF82 78 FFFFFF82 FFFFFFCA FFFFFF80 FFFFFF84 00 FFFFFF83 09 01 05 72
   69 67 68 74 08 0B FFFFFF83 0F FFFFFF82 78 FFFFFF82 FFFFFF88 FFFFFFA0 FFFFFF80 04 FFFFFF82
   7C 01 06 72 69 67 68 74 20 08 07 1B FFFFFF82 78 FFFFFF84 00
   FFFFFF83 11 14 0A FFFFFF83 12 FFFFFF83 13 FFFFFF83 14 FFFFFF83 15 FFFFFF83 16 10 06
   FFFFFF82 28 FFFFFF82 78 FFFFFF82 7D 08 07 FFFFFF83 00 FFFFFF83 10 FFFFFFC0 00 27 08
   07 FFFFFF83 04 FFFFFF83 10 FFFFFFC0 00 27 08 08 FFFFFF83 08 FFFFFF83 10 FFFFFFC0 00
   FFFFFF82 7C 08 08 FFFFFF83 0D FFFFFF83 10 FFFFFFC0 00 FFFFFF82 7C 08 08 FFFFFF83 18
   FFFFFF82 78 FFFFFF84 00 FFFFFF83 19 01 03 62 69 6E 15 04 FFFFFF83 1A FFFFFF83
   1D 14 06 FFFFFF83 1B FFFFFF83 1E FFFFFF83 1F 10 04 0A 21 FFFFFF83 1C 10
   03 2B FFFFFF83 1D 04 0A FFFFFF81 11 FFFFFF83 17 FFFFFF84 FFFFFF80 FFFFFF80 FFFFFFC2 00 2E
   08 08 FFFFFF83 08 FFFFFF83 17 FFFFFFC0 00 FFFFFF83 1B 08 08 FFFFFF83 0D FFFFFF83 17
   FFFFFFC0 00 FFFFFF83 1B 08 0A FFFFFF82 5F FFFFFF82 78 FFFFFF81 FFFFFF80 FFFFFF84 00 FFFFFF83 21
   15 04 FFFFFF83 22 FFFFFF83 25 14 0A FFFFFF83 23 FFFFFF83 26 FFFFFF83 2A FFFFFF83 2E
   FFFFFF83 34 10 06 FFFFFF82 28 FFFFFF82 78 FFFFFF83 24 10 03 2B FFFFFF83 25 04
   09 2D FFFFFF83 20 FFFFFF84 FFFFFF80 FFFFFF80 FFFFFFC2 00 2E 08 0B FFFFFF83 27 FFFFFF83 00
   FFFFFF83 20 FFFFFF90 FFFFFF80 FFFFFFC0 00 27 08 0A FFFFFF82 67 FFFFFF82 78 FFFFFF91 FFFFFF80 FFFFFF84
   00 FFFFFF83 28 15 03 27 FFFFFF83 29 04 09 2D FFFFFF83 27 FFFFFF84 FFFFFF80 FFFFFF80
   FFFFFFC2 00 2E 08 0B FFFFFF83 2B FFFFFF83 04 FFFFFF83 20 FFFFFF90 FFFFFF80 FFFFFFC0 00 27
   08 0A FFFFFF82 6C FFFFFF82 78 FFFFFF91 FFFFFF80 FFFFFF84 00 FFFFFF83 2C 15 03 27 FFFFFF83
   2D 04 09 2D FFFFFF83 2B FFFFFF84 FFFFFF80 FFFFFF80 FFFFFFC2 00 2E 08 0C FFFFFF83 30
   FFFFFF83 08 FFFFFF83 20 FFFFFF90 FFFFFF80 FFFFFFC0 00 FFFFFF83 2F 10 04 0A 21 FFFFFF83 24
   08 0A FFFFFF83 31 FFFFFF82 78 FFFFFF91 FFFFFF80 FFFFFF84 00 FFFFFF83 32 01 0E 63 6F
   70 79 24 64 65 66 61 75 6C 74 24 33 15 04 FFFFFF82 7C
   FFFFFF83 33 04 09 2D FFFFFF83 30 FFFFFF84 FFFFFF80 FFFFFF80 FFFFFFC2 00 2E 08 0C FFFFFF83
   35 FFFFFF83 0D FFFFFF83 20 FFFFFF90 FFFFFF80 FFFFFFC0 00 FFFFFF83 2F 08 0A FFFFFF83 36 FFFFFF82
   78 FFFFFF91 FFFFFF80 FFFFFF84 00 FFFFFF83 37 01 0E 63 6F 70 79 24 64 65
   66 61 75 6C 74 24 34 15 04 FFFFFF82 7C FFFFFF83 38 04 09 2D
   FFFFFF83 35 FFFFFF84 FFFFFF80 FFFFFF80 FFFFFFC2 00 2E 08 0A FFFFFF82 2E FFFFFF82 78 FFFFFF84 FFFFFF80
   FFFFFF80 FFFFFF84 20 7B 08 0B FFFFFF82 30 FFFFFF82 78 FFFFFF84 FFFFFF80 FFFFFF80 FFFFFF84 20 FFFFFF81
   18 08 0B FFFFFF82 32 FFFFFF82 78 FFFFFF84 FFFFFF80 FFFFFF80 FFFFFF84 20 FFFFFF83 3C 14 03
   32 FFFFFF83 3D 08 09 FFFFFF82 35 FFFFFF83 3B FFFFFF81 FFFFFF80 FFFFFFC0 00 27 08 0B
   FFFFFF82 37 FFFFFF82 78 FFFFFF84 FFFFFF80 FFFFFF80 FFFFFF84 20 FFFFFF83 3F 14 04 FFFFFF81 02 FFFFFF83
   40 08 09 FFFFFF82 35 FFFFFF83 3E FFFFFF81 FFFFFF80 FFFFFFC0 00 32 28 04 FFFFFF82 78
   FFFFFF82 3E 10 03 2B FFFFFF83 43 04 08 2D 1D FFFFFF84 FFFFFF80 FFFFFF80 FFFFFFC2 00
   2E 08 07 FFFFFF83 45 0B FFFFFF84 00 FFFFFF83 46 01 09 73 69 6E 67
   6C 65 74 6F 6E 15 04 FFFFFF83 47 FFFFFF83 4A 14 06 FFFFFF83 48 FFFFFF83
   4B FFFFFF83 4C 10 04 0A 21 FFFFFF83 49 10 03 2B FFFFFF83 4A 04 09
   2D FFFFFF83 44 FFFFFF84 FFFFFF80 FFFFFF80 FFFFFFC2 00 2E 08 07 FFFFFF81 20 FFFFFF83 44 FFFFFFC0
   00 27 08 08 FFFFFF81 45 FFFFFF83 44 FFFFFFC0 00 FFFFFF83 49 08 07 FFFFFF81 2F
   0B FFFFFF84 00 FFFFFF83 4E 15 04 FFFFFF83 4F FFFFFF83 52 14 04 FFFFFF83 50 FFFFFF83
   53 10 04 0A 21 FFFFFF83 51 10 03 2B FFFFFF83 52 04 09 2D FFFFFF83
   4D FFFFFF84 FFFFFF80 FFFFFF80 FFFFFFC2 00 2E 08 08 FFFFFF83 54 FFFFFF83 4D FFFFFFC0 00 FFFFFF83
   55 01 05 65 6C 65 6D 73 10 05 17 FFFFFF83 56 FFFFFF83 58 09
   03 FFFFFF83 57 06 02 0A 3C 72 65 70 65 61 74 65 64 3E
   10 05 17 50 27 FFFFFF83 51 07 08 FFFFFF83 5A 0B FFFFFF88 42 02 FFFFFF82
   27 01 03 4E 69 6C 07 0A FFFFFF83 5C 0B FFFFFF81 FFFFFF80 FFFFFF88 02 02
   FFFFFF83 5D 01 03 54 69 70 10 04 FFFFFF82 28 FFFFFF83 5E 06 0B FFFFFF82
   42 0B FFFFFF84 FFFFFF81 FFFFFF80 FFFFFF88 02 02 FFFFFF83 5F 13 04 FFFFFF83 5E 0E 16
   08 07 1B FFFFFF83 5E FFFFFF84 00 FFFFFF83 61 14 02 FFFFFF83 5D 08 0A FFFFFF81
   2F FFFFFF83 5E FFFFFF81 FFFFFF80 FFFFFF84 40 FFFFFF83 63 15 04 FFFFFF83 64 FFFFFF83 67 14
   06 FFFFFF83 65 FFFFFF83 68 FFFFFF83 69 10 06 FFFFFF82 28 FFFFFF82 41 FFFFFF83 66 10
   03 2B FFFFFF83 67 04 09 2D FFFFFF83 62 FFFFFF84 FFFFFF80 FFFFFF80 FFFFFFC2 00 2E 08
   07 FFFFFF81 20 FFFFFF83 62 FFFFFFC0 00 27 08 08 FFFFFF81 45 FFFFFF83 62 FFFFFFC0 00
   FFFFFF83 66 08 0A FFFFFF83 6B FFFFFF83 5E FFFFFF81 FFFFFF80 FFFFFF84 40 FFFFFF83 6C 01 07
   75 6E 61 70 70 6C 79 15 04 FFFFFF83 6D FFFFFF83 73 14 04 FFFFFF83
   6E FFFFFF83 74 10 05 17 FFFFFF83 6F FFFFFF83 71 09 03 FFFFFF83 70 06 02
   04 53 6F 6D 65 10 05 17 50 27 FFFFFF83 72 10 03 2B FFFFFF83
   73 04 09 2D FFFFFF83 6A FFFFFF84 FFFFFF80 FFFFFF80 FFFFFFC2 00 2E 08 08 FFFFFF83 75
   FFFFFF83 6A FFFFFFC0 00 FFFFFF83 76 01 03 78 24 30 10 06 FFFFFF82 28 FFFFFF82
   41 FFFFFF83 72 07 0A FFFFFF83 78 0B FFFFFF81 FFFFFF80 FFFFFF88 02 02 FFFFFF83 79 01
   03 42 69 6E 10 04 FFFFFF82 28 FFFFFF83 7A 06 0B FFFFFF82 79 0B FFFFFF84
   FFFFFF81 FFFFFF80 FFFFFF88 02 02 FFFFFF83 7B 13 04 FFFFFF83 7A 0E 16 08 07 1B
   FFFFFF83 7A FFFFFF84 00 FFFFFF83 7D 14 02 FFFFFF83 79 08 0A FFFFFF81 2F FFFFFF83 7A
   FFFFFF81 FFFFFF80 FFFFFF84 40 FFFFFF83 7F 15 04 FFFFFF84 00 FFFFFF84 03 14 0A FFFFFF84 01
   FFFFFF84 04 FFFFFF84 05 FFFFFF84 06 FFFFFF84 08 10 06 FFFFFF82 28 FFFFFF82 78 FFFFFF84 02
   10 03 2B FFFFFF84 03 04 09 2D FFFFFF83 7E FFFFFF84 FFFFFF80 FFFFFF80 FFFFFFC2 00 2E
   08 07 FFFFFF83 00 FFFFFF83 7E FFFFFFC0 00 27 08 07 FFFFFF83 04 FFFFFF83 7E FFFFFFC0
   00 27 08 08 FFFFFF83 08 FFFFFF83 7E FFFFFFC0 00 FFFFFF84 07 10 04 0A 21
   FFFFFF84 02 08 08 FFFFFF83 0D FFFFFF83 7E FFFFFFC0 00 FFFFFF84 07 08 0A FFFFFF83 6B
   FFFFFF83 7A FFFFFF81 FFFFFF80 FFFFFF84 40 FFFFFF84 0A 15 04 FFFFFF84 0B FFFFFF84 12 14 04
   FFFFFF84 0C FFFFFF84 13 10 05 17 FFFFFF83 6F FFFFFF84 0D 10 09 17 FFFFFF84 0E
   27 27 FFFFFF84 10 FFFFFF84 10 09 03 FFFFFF84 0F 06 02 06 54 75 70
   6C 65 34 10 04 0A 21 FFFFFF84 11 10 03 2B FFFFFF84 12 04 09
   2D FFFFFF84 09 FFFFFF84 FFFFFF80 FFFFFF80 FFFFFFC2 00 2E 08 08 FFFFFF83 75 FFFFFF84 09 FFFFFFC0
   00 FFFFFF84 14 10 06 FFFFFF82 28 FFFFFF82 78 FFFFFF84 11 
  InnerClass: 
   public #1059= #208 of #86; //Bin=class scala/collection/immutable/IntMap$Bin of class scala/collection/immutable/IntMap
   public #1060= #216 of #86; //Tip=class scala/collection/immutable/IntMap$Tip of class scala/collection/immutable/IntMap
   public final #1063= #1062 of #86; //$anonfun$apply$1=class scala/collection/immutable/IntMap$$anonfun$apply$1 of class scala/collection/immutable/IntMap
   public final #1064= #656 of #86; //$anonfun$toList$1=class scala/collection/immutable/IntMap$$anonfun$toList$1 of class scala/collection/immutable/IntMap
   public final #1065= #396 of #86; //$anonfun$unionWith$1=class scala/collection/immutable/IntMap$$anonfun$unionWith$1 of class scala/collection/immutable/IntMap
   public final #1066= #405 of #86; //$anonfun$unionWith$2=class scala/collection/immutable/IntMap$$anonfun$unionWith$2 of class scala/collection/immutable/IntMap
   public final #1067= #275 of #86; //$anonfun$$plus$plus$1=class scala/collection/immutable/IntMap$$anonfun$$plus$plus$1 of class scala/collection/immutable/IntMap
   public final #1068= #287 of #86; //$anonfun$intersection$1=class scala/collection/immutable/IntMap$$anonfun$intersection$1 of class scala/collection/immutable/IntMap
  minor version: 0
  major version: 49
  Constant pool:
const #1 = Asciz	SourceFile;
const #2 = Asciz	IntMap.scala;
const #3 = Asciz	<init>;
const #4 = Asciz	()V;
const #5 = Asciz	Code;
const #6 = Asciz	LineNumberTable;
const #7 = Asciz	java/lang/Object;
const #8 = class	#7;	//  java/lang/Object
const #9 = NameAndType	#3:#4;//  "<init>":()V
const #10 = Method	#8.#9;	//  java/lang/Object."<init>":()V
const #11 = Asciz	scala/collection/generic/TraversableTemplate$class;
const #12 = class	#11;	//  scala/collection/generic/TraversableTemplate$class
const #13 = Asciz	$init$;
const #14 = Asciz	(Lscala/collection/generic/TraversableTemplate;)V;
const #15 = NameAndType	#13:#14;//  $init$:(Lscala/collection/generic/TraversableTemplate;)V
const #16 = Method	#12.#15;	//  scala/collection/generic/TraversableTemplate$class.$init$:(Lscala/collection/generic/TraversableTemplate;)V
const #17 = Asciz	scala/collection/generic/TraversableClass$class;
const #18 = class	#17;	//  scala/collection/generic/TraversableClass$class
const #19 = Asciz	(Lscala/collection/generic/TraversableClass;)V;
const #20 = NameAndType	#13:#19;//  $init$:(Lscala/collection/generic/TraversableClass;)V
const #21 = Method	#18.#20;	//  scala/collection/generic/TraversableClass$class.$init$:(Lscala/collection/generic/TraversableClass;)V
const #22 = Asciz	scala/collection/Traversable$class;
const #23 = class	#22;	//  scala/collection/Traversable$class
const #24 = Asciz	(Lscala/collection/Traversable;)V;
const #25 = NameAndType	#13:#24;//  $init$:(Lscala/collection/Traversable;)V
const #26 = Method	#23.#25;	//  scala/collection/Traversable$class.$init$:(Lscala/collection/Traversable;)V
const #27 = Asciz	scala/collection/immutable/Traversable$class;
const #28 = class	#27;	//  scala/collection/immutable/Traversable$class
const #29 = Asciz	(Lscala/collection/immutable/Traversable;)V;
const #30 = NameAndType	#13:#29;//  $init$:(Lscala/collection/immutable/Traversable;)V
const #31 = Method	#28.#30;	//  scala/collection/immutable/Traversable$class.$init$:(Lscala/collection/immutable/Traversable;)V
const #32 = Asciz	scala/collection/generic/IterableTemplate$class;
const #33 = class	#32;	//  scala/collection/generic/IterableTemplate$class
const #34 = Asciz	(Lscala/collection/generic/IterableTemplate;)V;
const #35 = NameAndType	#13:#34;//  $init$:(Lscala/collection/generic/IterableTemplate;)V
const #36 = Method	#33.#35;	//  scala/collection/generic/IterableTemplate$class.$init$:(Lscala/collection/generic/IterableTemplate;)V
const #37 = Asciz	scala/collection/Iterable$class;
const #38 = class	#37;	//  scala/collection/Iterable$class
const #39 = Asciz	(Lscala/collection/Iterable;)V;
const #40 = NameAndType	#13:#39;//  $init$:(Lscala/collection/Iterable;)V
const #41 = Method	#38.#40;	//  scala/collection/Iterable$class.$init$:(Lscala/collection/Iterable;)V
const #42 = Asciz	scala/collection/immutable/Iterable$class;
const #43 = class	#42;	//  scala/collection/immutable/Iterable$class
const #44 = Asciz	(Lscala/collection/immutable/Iterable;)V;
const #45 = NameAndType	#13:#44;//  $init$:(Lscala/collection/immutable/Iterable;)V
const #46 = Method	#43.#45;	//  scala/collection/immutable/Iterable$class.$init$:(Lscala/collection/immutable/Iterable;)V
const #47 = Asciz	scala/Function1$class;
const #48 = class	#47;	//  scala/Function1$class
const #49 = Asciz	(Lscala/Function1;)V;
const #50 = NameAndType	#13:#49;//  $init$:(Lscala/Function1;)V
const #51 = Method	#48.#50;	//  scala/Function1$class.$init$:(Lscala/Function1;)V
const #52 = Asciz	scala/PartialFunction$class;
const #53 = class	#52;	//  scala/PartialFunction$class
const #54 = Asciz	(Lscala/PartialFunction;)V;
const #55 = NameAndType	#13:#54;//  $init$:(Lscala/PartialFunction;)V
const #56 = Method	#53.#55;	//  scala/PartialFunction$class.$init$:(Lscala/PartialFunction;)V
const #57 = Asciz	scala/collection/generic/Subtractable$class;
const #58 = class	#57;	//  scala/collection/generic/Subtractable$class
const #59 = Asciz	(Lscala/collection/generic/Subtractable;)V;
const #60 = NameAndType	#13:#59;//  $init$:(Lscala/collection/generic/Subtractable;)V
const #61 = Method	#58.#60;	//  scala/collection/generic/Subtractable$class.$init$:(Lscala/collection/generic/Subtractable;)V
const #62 = Asciz	scala/collection/generic/MapTemplate$class;
const #63 = class	#62;	//  scala/collection/generic/MapTemplate$class
const #64 = Asciz	(Lscala/collection/generic/MapTemplate;)V;
const #65 = NameAndType	#13:#64;//  $init$:(Lscala/collection/generic/MapTemplate;)V
const #66 = Method	#63.#65;	//  scala/collection/generic/MapTemplate$class.$init$:(Lscala/collection/generic/MapTemplate;)V
const #67 = Asciz	scala/collection/Map$class;
const #68 = class	#67;	//  scala/collection/Map$class
const #69 = Asciz	(Lscala/collection/Map;)V;
const #70 = NameAndType	#13:#69;//  $init$:(Lscala/collection/Map;)V
const #71 = Method	#68.#70;	//  scala/collection/Map$class.$init$:(Lscala/collection/Map;)V
const #72 = Asciz	scala/collection/generic/ImmutableMapTemplate$class;
const #73 = class	#72;	//  scala/collection/generic/ImmutableMapTemplate$class
const #74 = Asciz	(Lscala/collection/generic/ImmutableMapTemplate;)V;
const #75 = NameAndType	#13:#74;//  $init$:(Lscala/collection/generic/ImmutableMapTemplate;)V
const #76 = Method	#73.#75;	//  scala/collection/generic/ImmutableMapTemplate$class.$init$:(Lscala/collection/generic/ImmutableMapTemplate;)V
const #77 = Asciz	scala/collection/immutable/Map$class;
const #78 = class	#77;	//  scala/collection/immutable/Map$class
const #79 = Asciz	(Lscala/collection/immutable/Map;)V;
const #80 = NameAndType	#13:#79;//  $init$:(Lscala/collection/immutable/Map;)V
const #81 = Method	#78.#80;	//  scala/collection/immutable/Map$class.$init$:(Lscala/collection/immutable/Map;)V
const #82 = Asciz	Signature;
const #83 = Asciz	empty;
const #84 = Asciz	()Lscala/collection/immutable/Map;;
const #85 = Asciz	scala/collection/immutable/IntMap;
const #86 = class	#85;	//  scala/collection/immutable/IntMap
const #87 = Asciz	()Lscala/collection/immutable/IntMap;;
const #88 = NameAndType	#83:#87;//  empty:()Lscala/collection/immutable/IntMap;
const #89 = Method	#86.#88;	//  scala/collection/immutable/IntMap.empty:()Lscala/collection/immutable/IntMap;
const #90 = Asciz	()Lscala/collection/Map;;
const #91 = Asciz	()Lscala/collection/generic/MapTemplate;;
const #92 = Asciz	filter;
const #93 = Asciz	(Lscala/Function1;)Lscala/collection/generic/TraversableTemplate;;
const #94 = Asciz	(Lscala/Function1;)Lscala/collection/immutable/IntMap;;
const #95 = NameAndType	#92:#94;//  filter:(Lscala/Function1;)Lscala/collection/immutable/IntMap;
const #96 = Method	#86.#95;	//  scala/collection/immutable/IntMap.filter:(Lscala/Function1;)Lscala/collection/immutable/IntMap;
const #97 = Asciz	this;
const #98 = Asciz	Lscala/collection/immutable/IntMap;;
const #99 = Asciz	p;
const #100 = Asciz	Lscala/Function1;;
const #101 = Asciz	LocalVariableTable;
const #102 = Asciz	get;
const #103 = Asciz	(Ljava/lang/Object;)Lscala/Option;;
const #104 = Asciz	scala/runtime/BoxesRunTime;
const #105 = class	#104;	//  scala/runtime/BoxesRunTime
const #106 = Asciz	unboxToInt;
const #107 = Asciz	(Ljava/lang/Object;)I;
const #108 = NameAndType	#106:#107;//  unboxToInt:(Ljava/lang/Object;)I
const #109 = Method	#105.#108;	//  scala/runtime/BoxesRunTime.unboxToInt:(Ljava/lang/Object;)I
const #110 = Asciz	(I)Lscala/Option;;
const #111 = NameAndType	#102:#110;//  get:(I)Lscala/Option;
const #112 = Method	#86.#111;	//  scala/collection/immutable/IntMap.get:(I)Lscala/Option;
const #113 = Asciz	key;
const #114 = Asciz	Ljava/lang/Object;;
const #115 = Asciz	getOrElse;
const #116 = Asciz	(Ljava/lang/Object;Lscala/Function0;)Ljava/lang/Object;;
const #117 = Asciz	(ILscala/Function0;)Ljava/lang/Object;;
const #118 = NameAndType	#115:#117;//  getOrElse:(ILscala/Function0;)Ljava/lang/Object;
const #119 = Method	#86.#118;	//  scala/collection/immutable/IntMap.getOrElse:(ILscala/Function0;)Ljava/lang/Object;
const #120 = Asciz	default;
const #121 = Asciz	Lscala/Function0;;
const #122 = Asciz	apply;
const #123 = Asciz	(Ljava/lang/Object;)Ljava/lang/Object;;
const #124 = Asciz	(I)Ljava/lang/Object;;
const #125 = NameAndType	#122:#124;//  apply:(I)Ljava/lang/Object;
const #126 = Method	#86.#125;	//  scala/collection/immutable/IntMap.apply:(I)Ljava/lang/Object;
const #127 = Asciz	$plus;
const #128 = Asciz	(Lscala/Tuple2;)Lscala/collection/immutable/Map;;
const #129 = Asciz	(Lscala/Tuple2;)Lscala/collection/immutable/IntMap;;
const #130 = NameAndType	#127:#129;//  $plus:(Lscala/Tuple2;)Lscala/collection/immutable/IntMap;
const #131 = Method	#86.#130;	//  scala/collection/immutable/IntMap.$plus:(Lscala/Tuple2;)Lscala/collection/immutable/IntMap;
const #132 = Asciz	kv;
const #133 = Asciz	Lscala/Tuple2;;
const #134 = Asciz	(Lscala/Tuple2;)Lscala/collection/Map;;
const #135 = Asciz	updated;
const #136 = Asciz	(Ljava/lang/Object;Ljava/lang/Object;)Lscala/collection/immutable/Map;;
const #137 = Asciz	(ILjava/lang/Object;)Lscala/collection/immutable/IntMap;;
const #138 = NameAndType	#135:#137;//  updated:(ILjava/lang/Object;)Lscala/collection/immutable/IntMap;
const #139 = Method	#86.#138;	//  scala/collection/immutable/IntMap.updated:(ILjava/lang/Object;)Lscala/collection/immutable/IntMap;
const #140 = Asciz	value;
const #141 = Asciz	(Ljava/lang/Object;Ljava/lang/Object;)Lscala/collection/Map;;
const #142 = Asciz	update;
const #143 = NameAndType	#142:#137;//  update:(ILjava/lang/Object;)Lscala/collection/immutable/IntMap;
const #144 = Method	#86.#143;	//  scala/collection/immutable/IntMap.update:(ILjava/lang/Object;)Lscala/collection/immutable/IntMap;
const #145 = Asciz	$minus;
const #146 = Asciz	(Ljava/lang/Object;)Lscala/collection/generic/MapTemplate;;
const #147 = Asciz	(I)Lscala/collection/immutable/IntMap;;
const #148 = NameAndType	#145:#147;//  $minus:(I)Lscala/collection/immutable/IntMap;
const #149 = Method	#86.#148;	//  scala/collection/immutable/IntMap.$minus:(I)Lscala/collection/immutable/IntMap;
const #150 = Asciz	(Ljava/lang/Object;)Lscala/collection/generic/Subtractable;;
const #151 = Asciz	elem;
const #152 = Asciz	(Lscala/Tuple2;Lscala/Tuple2;Lscala/collection/Sequence;)Lscala/collection/Map;;
const #153 = Asciz	scala/collection/generic/ImmutableMapTemplate;
const #154 = class	#153;	//  scala/collection/generic/ImmutableMapTemplate
const #155 = Asciz	(Lscala/Tuple2;Lscala/Tuple2;Lscala/collection/Sequence;)Lscala/collection/immutable/Map;;
const #156 = NameAndType	#127:#155;//  $plus:(Lscala/Tuple2;Lscala/Tuple2;Lscala/collection/Sequence;)Lscala/collection/immutable/Map;
const #157 = InterfaceMethod	#154.#156;	//  scala/collection/generic/ImmutableMapTemplate.$plus:(Lscala/Tuple2;Lscala/Tuple2;Lscala/collection/Sequence;)Lscala/collection/immutable/Map;
const #158 = Asciz	elem1;
const #159 = Asciz	elem2;
const #160 = Asciz	elems;
const #161 = Asciz	Lscala/collection/Sequence;;
const #162 = Asciz	$plus$plus;
const #163 = Asciz	(Lscala/collection/Traversable;)Lscala/collection/Map;;
const #164 = Asciz	(Lscala/collection/Traversable;)Lscala/collection/immutable/Map;;
const #165 = NameAndType	#162:#164;//  $plus$plus:(Lscala/collection/Traversable;)Lscala/collection/immutable/Map;
const #166 = InterfaceMethod	#154.#165;	//  scala/collection/generic/ImmutableMapTemplate.$plus$plus:(Lscala/collection/Traversable;)Lscala/collection/immutable/Map;
const #167 = Asciz	Lscala/collection/Traversable;;
const #168 = Asciz	(Lscala/collection/Iterator;)Lscala/collection/Map;;
const #169 = Asciz	(Lscala/collection/Iterator;)Lscala/collection/immutable/Map;;
const #170 = NameAndType	#162:#169;//  $plus$plus:(Lscala/collection/Iterator;)Lscala/collection/immutable/Map;
const #171 = InterfaceMethod	#154.#170;	//  scala/collection/generic/ImmutableMapTemplate.$plus$plus:(Lscala/collection/Iterator;)Lscala/collection/immutable/Map;
const #172 = Asciz	iter;
const #173 = Asciz	Lscala/collection/Iterator;;
const #174 = Asciz	filterNot;
const #175 = Asciz	(Lscala/Function1;)Lscala/collection/generic/ImmutableMapTemplate;;
const #176 = NameAndType	#174:#175;//  filterNot:(Lscala/Function1;)Lscala/collection/generic/ImmutableMapTemplate;
const #177 = InterfaceMethod	#154.#176;	//  scala/collection/generic/ImmutableMapTemplate.filterNot:(Lscala/Function1;)Lscala/collection/generic/ImmutableMapTemplate;
const #178 = Asciz	andThen;
const #179 = Asciz	(Lscala/Function1;)Lscala/Function1;;
const #180 = Asciz	scala/PartialFunction;
const #181 = class	#180;	//  scala/PartialFunction
const #182 = Asciz	(Lscala/Function1;)Lscala/PartialFunction;;
const #183 = NameAndType	#178:#182;//  andThen:(Lscala/Function1;)Lscala/PartialFunction;
const #184 = InterfaceMethod	#181.#183;	//  scala/PartialFunction.andThen:(Lscala/Function1;)Lscala/PartialFunction;
const #185 = Asciz	g;
const #186 = Asciz	view;
const #187 = Asciz	(II)Lscala/collection/generic/TraversableView;;
const #188 = Asciz	scala/collection/generic/IterableTemplate;
const #189 = class	#188;	//  scala/collection/generic/IterableTemplate
const #190 = Asciz	(II)Lscala/collection/generic/IterableView;;
const #191 = NameAndType	#186:#190;//  view:(II)Lscala/collection/generic/IterableView;
const #192 = InterfaceMethod	#189.#191;	//  scala/collection/generic/IterableTemplate.view:(II)Lscala/collection/generic/IterableView;
const #193 = Asciz	from;
const #194 = Asciz	I;
const #195 = Asciz	until;
const #196 = Asciz	thisCollection;
const #197 = Asciz	()Lscala/collection/generic/Subtractable;;
const #198 = Asciz	scala/collection/generic/TraversableTemplate;
const #199 = class	#198;	//  scala/collection/generic/TraversableTemplate
const #200 = Asciz	()Lscala/collection/generic/TraversableTemplate;;
const #201 = NameAndType	#196:#200;//  thisCollection:()Lscala/collection/generic/TraversableTemplate;
const #202 = InterfaceMethod	#199.#201;	//  scala/collection/generic/TraversableTemplate.thisCollection:()Lscala/collection/generic/TraversableTemplate;
const #203 = Asciz	scala/collection/generic/Subtractable;
const #204 = class	#203;	//  scala/collection/generic/Subtractable
const #205 = Asciz	lastKey;
const #206 = Asciz	()I;
const #207 = Asciz	scala/collection/immutable/IntMap$Bin;
const #208 = class	#207;	//  scala/collection/immutable/IntMap$Bin
const #209 = Asciz	left;
const #210 = NameAndType	#209:#87;//  left:()Lscala/collection/immutable/IntMap;
const #211 = Method	#208.#210;	//  scala/collection/immutable/IntMap$Bin.left:()Lscala/collection/immutable/IntMap;
const #212 = Asciz	right;
const #213 = NameAndType	#212:#87;//  right:()Lscala/collection/immutable/IntMap;
const #214 = Method	#208.#213;	//  scala/collection/immutable/IntMap$Bin.right:()Lscala/collection/immutable/IntMap;
const #215 = Asciz	scala/collection/immutable/IntMap$Tip;
const #216 = class	#215;	//  scala/collection/immutable/IntMap$Tip
const #217 = NameAndType	#113:#206;//  key:()I
const #218 = Method	#216.#217;	//  scala/collection/immutable/IntMap$Tip.key:()I
const #219 = Asciz	()Ljava/lang/Object;;
const #220 = NameAndType	#140:#219;//  value:()Ljava/lang/Object;
const #221 = Method	#216.#220;	//  scala/collection/immutable/IntMap$Tip.value:()Ljava/lang/Object;
const #222 = Asciz	scala/collection/immutable/IntMap$Nil$;
const #223 = class	#222;	//  scala/collection/immutable/IntMap$Nil$
const #224 = Asciz	MODULE$;
const #225 = Asciz	Lscala/collection/immutable/IntMap$Nil$;;
const #226 = NameAndType	#224:#225;//  MODULE$:Lscala/collection/immutable/IntMap$Nil$;
const #227 = Field	#223.#226;	//  scala/collection/immutable/IntMap$Nil$.MODULE$:Lscala/collection/immutable/IntMap$Nil$;
const #228 = Asciz	equals;
const #229 = Asciz	(Ljava/lang/Object;)Z;
const #230 = NameAndType	#228:#229;//  equals:(Ljava/lang/Object;)Z
const #231 = Method	#8.#230;	//  java/lang/Object.equals:(Ljava/lang/Object;)Z
const #232 = Asciz	scala/Predef$;
const #233 = class	#232;	//  scala/Predef$
const #234 = Asciz	Lscala/Predef$;;
const #235 = NameAndType	#224:#234;//  MODULE$:Lscala/Predef$;
const #236 = Field	#233.#235;	//  scala/Predef$.MODULE$:Lscala/Predef$;
const #237 = Asciz	Empty set;
const #238 = String	#237;	//  Empty set
const #239 = Asciz	error;
const #240 = Asciz	(Ljava/lang/String;)Lscala/runtime/Nothing$;;
const #241 = NameAndType	#239:#240;//  error:(Ljava/lang/String;)Lscala/runtime/Nothing$;
const #242 = Method	#233.#241;	//  scala/Predef$.error:(Ljava/lang/String;)Lscala/runtime/Nothing$;
const #243 = Asciz	scala/MatchError;
const #244 = class	#243;	//  scala/MatchError
const #245 = Asciz	scala/collection/generic/MapTemplate;
const #246 = class	#245;	//  scala/collection/generic/MapTemplate
const #247 = Asciz	toString;
const #248 = Asciz	()Ljava/lang/String;;
const #249 = NameAndType	#247:#248;//  toString:()Ljava/lang/String;
const #250 = InterfaceMethod	#246.#249;	//  scala/collection/generic/MapTemplate.toString:()Ljava/lang/String;
const #251 = Asciz	(Ljava/lang/String;)V;
const #252 = NameAndType	#3:#251;//  "<init>":(Ljava/lang/String;)V
const #253 = Method	#244.#252;	//  scala/MatchError."<init>":(Ljava/lang/String;)V
const #254 = Asciz	temp221;
const #255 = Asciz	temp222;
const #256 = Asciz	Lscala/collection/immutable/IntMap$Bin;;
const #257 = Asciz	temp225;
const #258 = Asciz	temp226;
const #259 = Asciz	r;
const #260 = Asciz	temp227;
const #261 = Asciz	Lscala/collection/immutable/IntMap$Tip;;
const #262 = Asciz	temp228;
const #263 = Asciz	temp229;
const #264 = Asciz	v;
const #265 = Asciz	firstKey;
const #266 = Asciz	temp211;
const #267 = Asciz	temp212;
const #268 = Asciz	temp215;
const #269 = Asciz	temp216;
const #270 = Asciz	temp217;
const #271 = Asciz	temp218;
const #272 = Asciz	temp219;
const #273 = Asciz	(Lscala/collection/immutable/IntMap;)Lscala/collection/immutable/IntMap;;
const #274 = Asciz	scala/collection/immutable/IntMap$$anonfun$$plus$plus$1;
const #275 = class	#274;	//  scala/collection/immutable/IntMap$$anonfun$$plus$plus$1
const #276 = Asciz	(Lscala/collection/immutable/IntMap;)V;
const #277 = NameAndType	#3:#276;//  "<init>":(Lscala/collection/immutable/IntMap;)V
const #278 = Method	#275.#277;	//  scala/collection/immutable/IntMap$$anonfun$$plus$plus$1."<init>":(Lscala/collection/immutable/IntMap;)V
const #279 = Asciz	unionWith;
const #280 = Asciz	(Lscala/collection/immutable/IntMap;Lscala/Function3;)Lscala/collection/immutable/IntMap;;
const #281 = NameAndType	#279:#280;//  unionWith:(Lscala/collection/immutable/IntMap;Lscala/Function3;)Lscala/collection/immutable/IntMap;
const #282 = Method	#86.#281;	//  scala/collection/immutable/IntMap.unionWith:(Lscala/collection/immutable/IntMap;Lscala/Function3;)Lscala/collection/immutable/IntMap;
const #283 = Asciz	that;
const #284 = Asciz	<S:Ljava/lang/Object;>(Lscala/collection/immutable/IntMap<TS;>;)Lscala/collection/immutable/IntMap<TS;>;;
const #285 = Asciz	intersection;
const #286 = Asciz	scala/collection/immutable/IntMap$$anonfun$intersection$1;
const #287 = class	#286;	//  scala/collection/immutable/IntMap$$anonfun$intersection$1
const #288 = Method	#287.#277;	//  scala/collection/immutable/IntMap$$anonfun$intersection$1."<init>":(Lscala/collection/immutable/IntMap;)V
const #289 = Asciz	intersectionWith;
const #290 = NameAndType	#289:#280;//  intersectionWith:(Lscala/collection/immutable/IntMap;Lscala/Function3;)Lscala/collection/immutable/IntMap;
const #291 = Method	#86.#290;	//  scala/collection/immutable/IntMap.intersectionWith:(Lscala/collection/immutable/IntMap;Lscala/Function3;)Lscala/collection/immutable/IntMap;
const #292 = Asciz	<R:Ljava/lang/Object;>(Lscala/collection/immutable/IntMap<TR;>;)Lscala/collection/immutable/IntMap<TT;>;;
const #293 = Asciz	prefix;
const #294 = NameAndType	#293:#206;//  prefix:()I
const #295 = Method	#208.#294;	//  scala/collection/immutable/IntMap$Bin.prefix:()I
const #296 = Asciz	mask;
const #297 = NameAndType	#296:#206;//  mask:()I
const #298 = Method	#208.#297;	//  scala/collection/immutable/IntMap$Bin.mask:()I
const #299 = Asciz	scala/collection/immutable/IntMapUtils$;
const #300 = class	#299;	//  scala/collection/immutable/IntMapUtils$
const #301 = Asciz	Lscala/collection/immutable/IntMapUtils$;;
const #302 = NameAndType	#224:#301;//  MODULE$:Lscala/collection/immutable/IntMapUtils$;
const #303 = Field	#300.#302;	//  scala/collection/immutable/IntMapUtils$.MODULE$:Lscala/collection/immutable/IntMapUtils$;
const #304 = Asciz	shorter;
const #305 = Asciz	(II)Z;
const #306 = NameAndType	#304:#305;//  shorter:(II)Z
const #307 = Method	#300.#306;	//  scala/collection/immutable/IntMapUtils$.shorter:(II)Z
const #308 = Asciz	hasMatch;
const #309 = Asciz	(III)Z;
const #310 = NameAndType	#308:#309;//  hasMatch:(III)Z
const #311 = Method	#300.#310;	//  scala/collection/immutable/IntMapUtils$.hasMatch:(III)Z
const #312 = Asciz	zero;
const #313 = NameAndType	#312:#305;//  zero:(II)Z
const #314 = Method	#300.#313;	//  scala/collection/immutable/IntMapUtils$.zero:(II)Z
const #315 = Asciz	bin;
const #316 = Asciz	(IILscala/collection/immutable/IntMap;Lscala/collection/immutable/IntMap;)Lscala/collection/immutable/IntMap;;
const #317 = NameAndType	#315:#316;//  bin:(IILscala/collection/immutable/IntMap;Lscala/collection/immutable/IntMap;)Lscala/collection/immutable/IntMap;
const #318 = Method	#300.#317;	//  scala/collection/immutable/IntMapUtils$.bin:(IILscala/collection/immutable/IntMap;Lscala/collection/immutable/IntMap;)Lscala/collection/immutable/IntMap;
const #319 = Asciz	scala/None$;
const #320 = class	#319;	//  scala/None$
const #321 = Asciz	Lscala/None$;;
const #322 = NameAndType	#224:#321;//  MODULE$:Lscala/None$;
const #323 = Field	#320.#322;	//  scala/None$.MODULE$:Lscala/None$;
const #324 = Asciz	scala/Some;
const #325 = class	#324;	//  scala/Some
const #326 = Asciz	x;
const #327 = NameAndType	#326:#219;//  x:()Ljava/lang/Object;
const #328 = Method	#325.#327;	//  scala/Some.x:()Ljava/lang/Object;
const #329 = Asciz	boxToInteger;
const #330 = Asciz	(I)Ljava/lang/Integer;;
const #331 = NameAndType	#329:#330;//  boxToInteger:(I)Ljava/lang/Integer;
const #332 = Method	#105.#331;	//  scala/runtime/BoxesRunTime.boxToInteger:(I)Ljava/lang/Integer;
const #333 = Asciz	scala/Function3;
const #334 = class	#333;	//  scala/Function3
const #335 = Asciz	(Ljava/lang/Object;Ljava/lang/Object;Ljava/lang/Object;)Ljava/lang/Object;;
const #336 = NameAndType	#122:#335;//  apply:(Ljava/lang/Object;Ljava/lang/Object;Ljava/lang/Object;)Ljava/lang/Object;
const #337 = InterfaceMethod	#334.#336;	//  scala/Function3.apply:(Ljava/lang/Object;Ljava/lang/Object;Ljava/lang/Object;)Ljava/lang/Object;
const #338 = Asciz	(ILjava/lang/Object;)V;
const #339 = NameAndType	#3:#338;//  "<init>":(ILjava/lang/Object;)V
const #340 = Method	#216.#339;	//  scala/collection/immutable/IntMap$Tip."<init>":(ILjava/lang/Object;)V
const #341 = Asciz	scala/Option;
const #342 = class	#341;	//  scala/Option
const #343 = Method	#342.#249;	//  scala/Option.toString:()Ljava/lang/String;
const #344 = Asciz	f;
const #345 = Asciz	Lscala/Function3;;
const #346 = Asciz	tp7;
const #347 = Asciz	tp8;
const #348 = Asciz	temp192;
const #349 = Asciz	temp193;
const #350 = Asciz	temp194;
const #351 = Asciz	temp195;
const #352 = Asciz	temp196;
const #353 = Asciz	temp197;
const #354 = Asciz	temp198;
const #355 = Asciz	temp199;
const #356 = Asciz	temp200;
const #357 = Asciz	temp201;
const #358 = Asciz	r2;
const #359 = Asciz	l2;
const #360 = Asciz	m2;
const #361 = Asciz	p2;
const #362 = Asciz	r1;
const #363 = Asciz	l1;
const #364 = Asciz	m1;
const #365 = Asciz	p1;
const #366 = Asciz	temp202;
const #367 = Asciz	temp203;
const #368 = Asciz	temp204;
const #369 = Asciz	temp188;
const #370 = Asciz	Lscala/Option;;
const #371 = Asciz	temp190;
const #372 = Asciz	Lscala/Some;;
const #373 = Asciz	temp191;
const #374 = Asciz	temp205;
const #375 = Asciz	temp206;
const #376 = Asciz	temp207;
const #377 = Asciz	temp184;
const #378 = Asciz	temp186;
const #379 = Asciz	temp187;
const #380 = Asciz	temp208;
const #381 = Asciz	<S:Ljava/lang/Object;R:Ljava/lang/Object;>(Lscala/collection/immutable/IntMap<TS;>;Lscala/Function3<Ljava/lang/Integer;TT;TS;TR;>;)Lscala/collection/immutable/IntMap<TR;>;;
const #382 = Asciz	(IILscala/collection/immutable/IntMap;Lscala/collection/immutable/IntMap;)V;
const #383 = NameAndType	#3:#382;//  "<init>":(IILscala/collection/immutable/IntMap;Lscala/collection/immutable/IntMap;)V
const #384 = Method	#208.#383;	//  scala/collection/immutable/IntMap$Bin."<init>":(IILscala/collection/immutable/IntMap;Lscala/collection/immutable/IntMap;)V
const #385 = Asciz	join;
const #386 = Asciz	(ILscala/collection/immutable/IntMap;ILscala/collection/immutable/IntMap;)Lscala/collection/immutable/IntMap;;
const #387 = NameAndType	#385:#386;//  join:(ILscala/collection/immutable/IntMap;ILscala/collection/immutable/IntMap;)Lscala/collection/immutable/IntMap;
const #388 = Method	#300.#387;	//  scala/collection/immutable/IntMapUtils$.join:(ILscala/collection/immutable/IntMap;ILscala/collection/immutable/IntMap;)Lscala/collection/immutable/IntMap;
const #389 = Asciz	scala/Tuple2;
const #390 = class	#389;	//  scala/Tuple2
const #391 = Asciz	(Ljava/lang/Object;Ljava/lang/Object;)V;
const #392 = NameAndType	#3:#391;//  "<init>":(Ljava/lang/Object;Ljava/lang/Object;)V
const #393 = Method	#390.#392;	//  scala/Tuple2."<init>":(Ljava/lang/Object;Ljava/lang/Object;)V
const #394 = Method	#390.#249;	//  scala/Tuple2.toString:()Ljava/lang/String;
const #395 = Asciz	scala/collection/immutable/IntMap$$anonfun$unionWith$1;
const #396 = class	#395;	//  scala/collection/immutable/IntMap$$anonfun$unionWith$1
const #397 = Asciz	(Lscala/collection/immutable/IntMap;Lscala/Function3;I)V;
const #398 = NameAndType	#3:#397;//  "<init>":(Lscala/collection/immutable/IntMap;Lscala/Function3;I)V
const #399 = Method	#396.#398;	//  scala/collection/immutable/IntMap$$anonfun$unionWith$1."<init>":(Lscala/collection/immutable/IntMap;Lscala/Function3;I)V
const #400 = Asciz	updateWith;
const #401 = Asciz	(ILjava/lang/Object;Lscala/Function2;)Lscala/collection/immutable/IntMap;;
const #402 = NameAndType	#400:#401;//  updateWith:(ILjava/lang/Object;Lscala/Function2;)Lscala/collection/immutable/IntMap;
const #403 = Method	#86.#402;	//  scala/collection/immutable/IntMap.updateWith:(ILjava/lang/Object;Lscala/Function2;)Lscala/collection/immutable/IntMap;
const #404 = Asciz	scala/collection/immutable/IntMap$$anonfun$unionWith$2;
const #405 = class	#404;	//  scala/collection/immutable/IntMap$$anonfun$unionWith$2
const #406 = Method	#405.#398;	//  scala/collection/immutable/IntMap$$anonfun$unionWith$2."<init>":(Lscala/collection/immutable/IntMap;Lscala/Function3;I)V
const #407 = Asciz	f$1;
const #408 = Asciz	tp5;
const #409 = Asciz	tp6;
const #410 = Asciz	temp162;
const #411 = Asciz	temp163;
const #412 = Asciz	temp164;
const #413 = Asciz	temp165;
const #414 = Asciz	temp166;
const #415 = Asciz	temp167;
const #416 = Asciz	temp168;
const #417 = Asciz	temp169;
const #418 = Asciz	temp170;
const #419 = Asciz	temp171;
const #420 = Asciz	temp172;
const #421 = Asciz	temp173;
const #422 = Asciz	temp174;
const #423 = Asciz	key$2;
const #424 = Asciz	temp176;
const #425 = Asciz	temp177;
const #426 = Asciz	temp178;
const #427 = Asciz	key$1;
const #428 = Asciz	temp179;
const #429 = Asciz	<S:Ljava/lang/Object;>(Lscala/collection/immutable/IntMap<TS;>;Lscala/Function3<Ljava/lang/Integer;TS;TS;TS;>;)Lscala/collection/immutable/IntMap<TS;>;;
const #430 = Asciz	modifyOrRemove;
const #431 = Asciz	(Lscala/Function2;)Lscala/collection/immutable/IntMap;;
const #432 = NameAndType	#430:#431;//  modifyOrRemove:(Lscala/Function2;)Lscala/collection/immutable/IntMap;
const #433 = Method	#86.#432;	//  scala/collection/immutable/IntMap.modifyOrRemove:(Lscala/Function2;)Lscala/collection/immutable/IntMap;
const #434 = Asciz	scala/Function2;
const #435 = class	#434;	//  scala/Function2
const #436 = Asciz	(Ljava/lang/Object;Ljava/lang/Object;)Ljava/lang/Object;;
const #437 = NameAndType	#122:#436;//  apply:(Ljava/lang/Object;Ljava/lang/Object;)Ljava/lang/Object;
const #438 = InterfaceMethod	#435.#437;	//  scala/Function2.apply:(Ljava/lang/Object;Ljava/lang/Object;)Ljava/lang/Object;
const #439 = Asciz	Lscala/Function2;;
const #440 = Asciz	temp152;
const #441 = Asciz	temp153;
const #442 = Asciz	temp154;
const #443 = Asciz	temp155;
const #444 = Asciz	temp156;
const #445 = Asciz	temp157;
const #446 = Asciz	newleft;
const #447 = Asciz	newright;
const #448 = Asciz	temp158;
const #449 = Asciz	temp159;
const #450 = Asciz	temp160;
const #451 = Asciz	temp148;
const #452 = Asciz	temp150;
const #453 = Asciz	temp151;
const #454 = Asciz	value2;
const #455 = Asciz	<S:Ljava/lang/Object;>(Lscala/Function2<Ljava/lang/Integer;TT;Lscala/Option<TS;>;>;)Lscala/collection/immutable/IntMap<TS;>;;
const #456 = Asciz	temp138;
const #457 = Asciz	temp139;
const #458 = Asciz	temp140;
const #459 = Asciz	temp141;
const #460 = Asciz	temp142;
const #461 = Asciz	temp143;
const #462 = Asciz	temp144;
const #463 = Asciz	temp145;
const #464 = Asciz	(I)Lscala/collection/immutable/IntMap<TT;>;;
const #465 = Asciz	temp128;
const #466 = Asciz	temp129;
const #467 = Asciz	temp130;
const #468 = Asciz	temp131;
const #469 = Asciz	temp132;
const #470 = Asciz	temp133;
const #471 = Asciz	temp134;
const #472 = Asciz	temp135;
const #473 = Asciz	temp136;
const #474 = Asciz	key2;
const #475 = Asciz	<S:Ljava/lang/Object;>(ITS;Lscala/Function2<TT;TS;TS;>;)Lscala/collection/immutable/IntMap<TS;>;;
const #476 = Asciz	<S:Ljava/lang/Object;>(ITS;)Lscala/collection/immutable/IntMap<TS;>;;
const #477 = Asciz	temp118;
const #478 = Asciz	temp119;
const #479 = Asciz	temp120;
const #480 = Asciz	temp121;
const #481 = Asciz	temp122;
const #482 = Asciz	temp123;
const #483 = Asciz	temp124;
const #484 = Asciz	temp125;
const #485 = Asciz	temp126;
const #486 = Asciz	_1;
const #487 = NameAndType	#486:#219;//  _1:()Ljava/lang/Object;
const #488 = Method	#390.#487;	//  scala/Tuple2._1:()Ljava/lang/Object;
const #489 = Asciz	_2;
const #490 = NameAndType	#489:#219;//  _2:()Ljava/lang/Object;
const #491 = Method	#390.#490;	//  scala/Tuple2._2:()Ljava/lang/Object;
const #492 = Asciz	<S:Ljava/lang/Object;>(Lscala/Tuple2<Ljava/lang/Integer;TS;>;)Lscala/collection/immutable/IntMap<TS;>;;
const #493 = Asciz	Key not found;
const #494 = String	#493;	//  Key not found
const #495 = Asciz	key not found;
const #496 = String	#495;	//  key not found
const #497 = Asciz	temp108;
const #498 = Asciz	temp109;
const #499 = Asciz	temp110;
const #500 = Asciz	temp111;
const #501 = Asciz	temp112;
const #502 = Asciz	temp113;
const #503 = Asciz	temp114;
const #504 = Asciz	temp115;
const #505 = Asciz	temp116;
const #506 = Asciz	(I)TT;;
const #507 = Asciz	scala/Function0;
const #508 = class	#507;	//  scala/Function0
const #509 = NameAndType	#122:#219;//  apply:()Ljava/lang/Object;
const #510 = InterfaceMethod	#508.#509;	//  scala/Function0.apply:()Ljava/lang/Object;
const #511 = Asciz	temp98;
const #512 = Asciz	temp100;
const #513 = Asciz	temp101;
const #514 = Asciz	temp102;
const #515 = Asciz	temp103;
const #516 = Asciz	temp104;
const #517 = Asciz	temp105;
const #518 = Asciz	temp106;
const #519 = Asciz	temp107;
const #520 = Asciz	<S:Ljava/lang/Object;>(ILscala/Function0<TS;>;)TS;;
const #521 = Asciz	(Ljava/lang/Object;)V;
const #522 = NameAndType	#3:#521;//  "<init>":(Ljava/lang/Object;)V
const #523 = Method	#325.#522;	//  scala/Some."<init>":(Ljava/lang/Object;)V
const #524 = Asciz	temp88;
const #525 = Asciz	temp89;
const #526 = Asciz	temp90;
const #527 = Asciz	temp91;
const #528 = Asciz	temp92;
const #529 = Asciz	temp93;
const #530 = Asciz	temp94;
const #531 = Asciz	temp95;
const #532 = Asciz	temp96;
const #533 = Asciz	(I)Lscala/Option<TT;>;;
const #534 = Asciz	size;
const #535 = NameAndType	#534:#206;//  size:()I
const #536 = Method	#86.#535;	//  scala/collection/immutable/IntMap.size:()I
const #537 = Asciz	temp78;
const #538 = Asciz	temp83;
const #539 = Asciz	temp86;
const #540 = Asciz	temp87;
const #541 = Asciz	transform;
const #542 = NameAndType	#541:#431;//  transform:(Lscala/Function2;)Lscala/collection/immutable/IntMap;
const #543 = Method	#86.#542;	//  scala/collection/immutable/IntMap.transform:(Lscala/Function2;)Lscala/collection/immutable/IntMap;
const #544 = Asciz	(Lscala/collection/immutable/IntMap;Lscala/collection/immutable/IntMap;)Lscala/collection/immutable/IntMap;;
const #545 = NameAndType	#315:#544;//  bin:(Lscala/collection/immutable/IntMap;Lscala/collection/immutable/IntMap;)Lscala/collection/immutable/IntMap;
const #546 = Method	#208.#545;	//  scala/collection/immutable/IntMap$Bin.bin:(Lscala/collection/immutable/IntMap;Lscala/collection/immutable/IntMap;)Lscala/collection/immutable/IntMap;
const #547 = Asciz	withValue;
const #548 = Asciz	(Ljava/lang/Object;)Lscala/collection/immutable/IntMap$Tip;;
const #549 = NameAndType	#547:#548;//  withValue:(Ljava/lang/Object;)Lscala/collection/immutable/IntMap$Tip;
const #550 = Method	#216.#549;	//  scala/collection/immutable/IntMap$Tip.withValue:(Ljava/lang/Object;)Lscala/collection/immutable/IntMap$Tip;
const #551 = Asciz	temp68;
const #552 = Asciz	temp69;
const #553 = Asciz	temp70;
const #554 = Asciz	temp71;
const #555 = Asciz	temp72;
const #556 = Asciz	temp73;
const #557 = Asciz	temp74;
const #558 = Asciz	temp75;
const #559 = Asciz	temp76;
const #560 = Asciz	<S:Ljava/lang/Object;>(Lscala/Function2<Ljava/lang/Integer;TT;TS;>;)Lscala/collection/immutable/IntMap<TS;>;;
const #561 = Asciz	scala/Function1;
const #562 = class	#561;	//  scala/Function1
const #563 = NameAndType	#122:#123;//  apply:(Ljava/lang/Object;)Ljava/lang/Object;
const #564 = InterfaceMethod	#562.#563;	//  scala/Function1.apply:(Ljava/lang/Object;)Ljava/lang/Object;
const #565 = Asciz	unboxToBoolean;
const #566 = NameAndType	#565:#229;//  unboxToBoolean:(Ljava/lang/Object;)Z
const #567 = Method	#105.#566;	//  scala/runtime/BoxesRunTime.unboxToBoolean:(Ljava/lang/Object;)Z
const #568 = Asciz	temp58;
const #569 = Asciz	temp59;
const #570 = Asciz	temp60;
const #571 = Asciz	temp61;
const #572 = Asciz	temp62;
const #573 = Asciz	temp63;
const #574 = Asciz	tp3;
const #575 = Asciz	tp4;
const #576 = Asciz	temp64;
const #577 = Asciz	temp65;
const #578 = Asciz	temp66;
const #579 = Asciz	(Lscala/Function1<Lscala/Tuple2<Ljava/lang/Integer;TT;>;Ljava/lang/Boolean;>;)Lscala/collection/immutable/IntMap<TT;>;;
const #580 = Asciz	isEmpty;
const #581 = Asciz	()Z;
const #582 = Asciz	stringPrefix;
const #583 = Asciz	IntMap;
const #584 = String	#583;	//  IntMap
const #585 = Asciz	foreachValue;
const #586 = NameAndType	#585:#49;//  foreachValue:(Lscala/Function1;)V
const #587 = Method	#86.#586;	//  scala/collection/immutable/IntMap.foreachValue:(Lscala/Function1;)V
const #588 = Asciz	temp48;
const #589 = Asciz	temp49;
const #590 = Asciz	temp52;
const #591 = Asciz	temp53;
const #592 = Asciz	temp54;
const #593 = Asciz	temp56;
const #594 = Asciz	(Lscala/Function1<TT;Ljava/lang/Object;>;)V;
const #595 = Asciz	valuesIterator;
const #596 = Asciz	()Lscala/collection/Iterator;;
const #597 = Asciz	scala/package$;
const #598 = class	#597;	//  scala/package$
const #599 = Asciz	Lscala/package$;;
const #600 = NameAndType	#224:#599;//  MODULE$:Lscala/package$;
const #601 = Field	#598.#600;	//  scala/package$.MODULE$:Lscala/package$;
const #602 = Asciz	Iterator;
const #603 = Asciz	()Lscala/collection/Iterator$;;
const #604 = NameAndType	#602:#603;//  Iterator:()Lscala/collection/Iterator$;
const #605 = Method	#598.#604;	//  scala/package$.Iterator:()Lscala/collection/Iterator$;
const #606 = Asciz	scala/collection/Iterator$;
const #607 = class	#606;	//  scala/collection/Iterator$
const #608 = NameAndType	#83:#219;//  empty:()Ljava/lang/Object;
const #609 = Method	#607.#608;	//  scala/collection/Iterator$.empty:()Ljava/lang/Object;
const #610 = Asciz	scala/collection/Iterator;
const #611 = class	#610;	//  scala/collection/Iterator
const #612 = Asciz	scala/collection/immutable/IntMapValueIterator;
const #613 = class	#612;	//  scala/collection/immutable/IntMapValueIterator
const #614 = Method	#613.#277;	//  scala/collection/immutable/IntMapValueIterator."<init>":(Lscala/collection/immutable/IntMap;)V
const #615 = Asciz	temp46;
const #616 = Asciz	()Lscala/collection/Iterator<TT;>;;
const #617 = Asciz	foreachKey;
const #618 = NameAndType	#617:#49;//  foreachKey:(Lscala/Function1;)V
const #619 = Method	#86.#618;	//  scala/collection/immutable/IntMap.foreachKey:(Lscala/Function1;)V
const #620 = Asciz	temp36;
const #621 = Asciz	temp37;
const #622 = Asciz	temp40;
const #623 = Asciz	temp41;
const #624 = Asciz	temp42;
const #625 = Asciz	temp43;
const #626 = Asciz	(Lscala/Function1<Ljava/lang/Integer;Ljava/lang/Object;>;)V;
const #627 = Asciz	keysIterator;
const #628 = Asciz	scala/collection/immutable/IntMapKeyIterator;
const #629 = class	#628;	//  scala/collection/immutable/IntMapKeyIterator
const #630 = Method	#629.#277;	//  scala/collection/immutable/IntMapKeyIterator."<init>":(Lscala/collection/immutable/IntMap;)V
const #631 = Asciz	temp34;
const #632 = Asciz	()Lscala/collection/Iterator<Ljava/lang/Integer;>;;
const #633 = Asciz	foreach;
const #634 = NameAndType	#633:#49;//  foreach:(Lscala/Function1;)V
const #635 = Method	#86.#634;	//  scala/collection/immutable/IntMap.foreach:(Lscala/Function1;)V
const #636 = Asciz	temp24;
const #637 = Asciz	temp25;
const #638 = Asciz	temp28;
const #639 = Asciz	temp29;
const #640 = Asciz	temp30;
const #641 = Asciz	temp31;
const #642 = Asciz	temp32;
const #643 = Asciz	<U:Ljava/lang/Object;>(Lscala/Function1<Lscala/Tuple2<Ljava/lang/Integer;TT;>;TU;>;)V;
const #644 = Asciz	iterator;
const #645 = Asciz	scala/collection/immutable/IntMapEntryIterator;
const #646 = class	#645;	//  scala/collection/immutable/IntMapEntryIterator
const #647 = Method	#646.#277;	//  scala/collection/immutable/IntMapEntryIterator."<init>":(Lscala/collection/immutable/IntMap;)V
const #648 = Asciz	temp22;
const #649 = Asciz	()Lscala/collection/Iterator<Lscala/Tuple2<Ljava/lang/Integer;TT;>;>;;
const #650 = Asciz	toList;
const #651 = Asciz	()Lscala/collection/immutable/List;;
const #652 = Asciz	scala/collection/mutable/ListBuffer;
const #653 = class	#652;	//  scala/collection/mutable/ListBuffer
const #654 = Method	#653.#9;	//  scala/collection/mutable/ListBuffer."<init>":()V
const #655 = Asciz	scala/collection/immutable/IntMap$$anonfun$toList$1;
const #656 = class	#655;	//  scala/collection/immutable/IntMap$$anonfun$toList$1
const #657 = Asciz	(Lscala/collection/immutable/IntMap;Lscala/collection/mutable/ListBuffer;)V;
const #658 = NameAndType	#3:#657;//  "<init>":(Lscala/collection/immutable/IntMap;Lscala/collection/mutable/ListBuffer;)V
const #659 = Method	#656.#658;	//  scala/collection/immutable/IntMap$$anonfun$toList$1."<init>":(Lscala/collection/immutable/IntMap;Lscala/collection/mutable/ListBuffer;)V
const #660 = NameAndType	#650:#651;//  toList:()Lscala/collection/immutable/List;
const #661 = Method	#653.#660;	//  scala/collection/mutable/ListBuffer.toList:()Lscala/collection/immutable/List;
const #662 = Asciz	buffer$1;
const #663 = Asciz	Lscala/collection/mutable/ListBuffer;;
const #664 = Asciz	()Lscala/collection/immutable/List<Lscala/Tuple2<Ljava/lang/Integer;TT;>;>;;
const #665 = Asciz	()Lscala/collection/immutable/IntMap<TT;>;;
const #666 = Asciz	addString;
const #667 = Asciz	(Lscala/collection/mutable/StringBuilder;)Lscala/collection/mutable/StringBuilder;;
const #668 = Asciz	(Lscala/collection/generic/TraversableTemplate;Lscala/collection/mutable/StringBuilder;)Lscala/collection/mutable/StringBuilder;;
const #669 = NameAndType	#666:#668;//  addString:(Lscala/collection/generic/TraversableTemplate;Lscala/collection/mutable/StringBuilder;)Lscala/collection/mutable/StringBuilder;
const #670 = Method	#12.#669;	//  scala/collection/generic/TraversableTemplate$class.addString:(Lscala/collection/generic/TraversableTemplate;Lscala/collection/mutable/StringBuilder;)Lscala/collection/mutable/StringBuilder;
const #671 = Asciz	b;
const #672 = Asciz	Lscala/collection/mutable/StringBuilder;;
const #673 = Asciz	(Lscala/collection/mutable/StringBuilder;Ljava/lang/String;)Lscala/collection/mutable/StringBuilder;;
const #674 = Asciz	(Lscala/collection/generic/TraversableTemplate;Lscala/collection/mutable/StringBuilder;Ljava/lang/String;)Lscala/collection/mutable/StringBuilder;;
const #675 = NameAndType	#666:#674;//  addString:(Lscala/collection/generic/TraversableTemplate;Lscala/collection/mutable/StringBuilder;Ljava/lang/String;)Lscala/collection/mutable/StringBuilder;
const #676 = Method	#12.#675;	//  scala/collection/generic/TraversableTemplate$class.addString:(Lscala/collection/generic/TraversableTemplate;Lscala/collection/mutable/StringBuilder;Ljava/lang/String;)Lscala/collection/mutable/StringBuilder;
const #677 = Asciz	sep;
const #678 = Asciz	Ljava/lang/String;;
const #679 = Asciz	mkString;
const #680 = Asciz	(Lscala/collection/generic/TraversableTemplate;)Ljava/lang/String;;
const #681 = NameAndType	#679:#680;//  mkString:(Lscala/collection/generic/TraversableTemplate;)Ljava/lang/String;
const #682 = Method	#12.#681;	//  scala/collection/generic/TraversableTemplate$class.mkString:(Lscala/collection/generic/TraversableTemplate;)Ljava/lang/String;
const #683 = Asciz	(Ljava/lang/String;)Ljava/lang/String;;
const #684 = Asciz	(Lscala/collection/generic/TraversableTemplate;Ljava/lang/String;)Ljava/lang/String;;
const #685 = NameAndType	#679:#684;//  mkString:(Lscala/collection/generic/TraversableTemplate;Ljava/lang/String;)Ljava/lang/String;
const #686 = Method	#12.#685;	//  scala/collection/generic/TraversableTemplate$class.mkString:(Lscala/collection/generic/TraversableTemplate;Ljava/lang/String;)Ljava/lang/String;
const #687 = Asciz	(Ljava/lang/String;Ljava/lang/String;Ljava/lang/String;)Ljava/lang/String;;
const #688 = Asciz	(Lscala/collection/generic/TraversableTemplate;Ljava/lang/String;Ljava/lang/String;Ljava/lang/String;)Ljava/lang/String;;
const #689 = NameAndType	#679:#688;//  mkString:(Lscala/collection/generic/TraversableTemplate;Ljava/lang/String;Ljava/lang/String;Ljava/lang/String;)Ljava/lang/String;
const #690 = Method	#12.#689;	//  scala/collection/generic/TraversableTemplate$class.mkString:(Lscala/collection/generic/TraversableTemplate;Ljava/lang/String;Ljava/lang/String;Ljava/lang/String;)Ljava/lang/String;
const #691 = Asciz	start;
const #692 = Asciz	end;
const #693 = Asciz	toSet;
const #694 = Asciz	()Lscala/collection/immutable/Set;;
const #695 = Asciz	(Lscala/collection/generic/TraversableTemplate;)Lscala/collection/immutable/Set;;
const #696 = NameAndType	#693:#695;//  toSet:(Lscala/collection/generic/TraversableTemplate;)Lscala/collection/immutable/Set;
const #697 = Method	#12.#696;	//  scala/collection/generic/TraversableTemplate$class.toSet:(Lscala/collection/generic/TraversableTemplate;)Lscala/collection/immutable/Set;
const #698 = Asciz	toSequence;
const #699 = Asciz	()Lscala/collection/Sequence;;
const #700 = Asciz	(Lscala/collection/generic/TraversableTemplate;)Lscala/collection/Sequence;;
const #701 = NameAndType	#698:#700;//  toSequence:(Lscala/collection/generic/TraversableTemplate;)Lscala/collection/Sequence;
const #702 = Method	#12.#701;	//  scala/collection/generic/TraversableTemplate$class.toSequence:(Lscala/collection/generic/TraversableTemplate;)Lscala/collection/Sequence;
const #703 = Asciz	toArray;
const #704 = Asciz	()Lscala/runtime/BoxedArray;;
const #705 = Asciz	(Lscala/collection/generic/TraversableTemplate;)Lscala/runtime/BoxedArray;;
const #706 = NameAndType	#703:#705;//  toArray:(Lscala/collection/generic/TraversableTemplate;)Lscala/runtime/BoxedArray;
const #707 = Method	#12.#706;	//  scala/collection/generic/TraversableTemplate$class.toArray:(Lscala/collection/generic/TraversableTemplate;)Lscala/runtime/BoxedArray;
const #708 = Asciz	copyToArray;
const #709 = Asciz	(Lscala/runtime/BoxedArray;I)V;
const #710 = Asciz	(Lscala/collection/generic/TraversableTemplate;Lscala/runtime/BoxedArray;I)V;
const #711 = NameAndType	#708:#710;//  copyToArray:(Lscala/collection/generic/TraversableTemplate;Lscala/runtime/BoxedArray;I)V
const #712 = Method	#12.#711;	//  scala/collection/generic/TraversableTemplate$class.copyToArray:(Lscala/collection/generic/TraversableTemplate;Lscala/runtime/BoxedArray;I)V
const #713 = Asciz	xs;
const #714 = Asciz	Lscala/runtime/BoxedArray;;
const #715 = Asciz	(Lscala/runtime/BoxedArray;II)V;
const #716 = Asciz	(Lscala/collection/generic/TraversableTemplate;Lscala/runtime/BoxedArray;II)V;
const #717 = NameAndType	#708:#716;//  copyToArray:(Lscala/collection/generic/TraversableTemplate;Lscala/runtime/BoxedArray;II)V
const #718 = Method	#12.#717;	//  scala/collection/generic/TraversableTemplate$class.copyToArray:(Lscala/collection/generic/TraversableTemplate;Lscala/runtime/BoxedArray;II)V
const #719 = Asciz	len;
const #720 = Asciz	copyToBuffer;
const #721 = Asciz	(Lscala/collection/mutable/Buffer;)V;
const #722 = Asciz	(Lscala/collection/generic/TraversableTemplate;Lscala/collection/mutable/Buffer;)V;
const #723 = NameAndType	#720:#722;//  copyToBuffer:(Lscala/collection/generic/TraversableTemplate;Lscala/collection/mutable/Buffer;)V
const #724 = Method	#12.#723;	//  scala/collection/generic/TraversableTemplate$class.copyToBuffer:(Lscala/collection/generic/TraversableTemplate;Lscala/collection/mutable/Buffer;)V
const #725 = Asciz	dest;
const #726 = Asciz	Lscala/collection/mutable/Buffer;;
const #727 = Asciz	splitAt;
const #728 = Asciz	(I)Lscala/Tuple2;;
const #729 = Asciz	(Lscala/collection/generic/TraversableTemplate;I)Lscala/Tuple2;;
const #730 = NameAndType	#727:#729;//  splitAt:(Lscala/collection/generic/TraversableTemplate;I)Lscala/Tuple2;
const #731 = Method	#12.#730;	//  scala/collection/generic/TraversableTemplate$class.splitAt:(Lscala/collection/generic/TraversableTemplate;I)Lscala/Tuple2;
const #732 = Asciz	n;
const #733 = Asciz	span;
const #734 = Asciz	(Lscala/Function1;)Lscala/Tuple2;;
const #735 = Asciz	(Lscala/collection/generic/TraversableTemplate;Lscala/Function1;)Lscala/Tuple2;;
const #736 = NameAndType	#733:#735;//  span:(Lscala/collection/generic/TraversableTemplate;Lscala/Function1;)Lscala/Tuple2;
const #737 = Method	#12.#736;	//  scala/collection/generic/TraversableTemplate$class.span:(Lscala/collection/generic/TraversableTemplate;Lscala/Function1;)Lscala/Tuple2;
const #738 = Asciz	dropWhile;
const #739 = Asciz	(Lscala/collection/generic/TraversableTemplate;Lscala/Function1;)Lscala/collection/generic/TraversableTemplate;;
const #740 = NameAndType	#738:#739;//  dropWhile:(Lscala/collection/generic/TraversableTemplate;Lscala/Function1;)Lscala/collection/generic/TraversableTemplate;
const #741 = Method	#12.#740;	//  scala/collection/generic/TraversableTemplate$class.dropWhile:(Lscala/collection/generic/TraversableTemplate;Lscala/Function1;)Lscala/collection/generic/TraversableTemplate;
const #742 = Asciz	takeWhile;
const #743 = NameAndType	#742:#739;//  takeWhile:(Lscala/collection/generic/TraversableTemplate;Lscala/Function1;)Lscala/collection/generic/TraversableTemplate;
const #744 = Method	#12.#743;	//  scala/collection/generic/TraversableTemplate$class.takeWhile:(Lscala/collection/generic/TraversableTemplate;Lscala/Function1;)Lscala/collection/generic/TraversableTemplate;
const #745 = Asciz	slice;
const #746 = Asciz	(II)Lscala/collection/generic/TraversableTemplate;;
const #747 = Asciz	(Lscala/collection/generic/TraversableTemplate;II)Lscala/collection/generic/TraversableTemplate;;
const #748 = NameAndType	#745:#747;//  slice:(Lscala/collection/generic/TraversableTemplate;II)Lscala/collection/generic/TraversableTemplate;
const #749 = Method	#12.#748;	//  scala/collection/generic/TraversableTemplate$class.slice:(Lscala/collection/generic/TraversableTemplate;II)Lscala/collection/generic/TraversableTemplate;
const #750 = Asciz	drop;
const #751 = Asciz	(I)Lscala/collection/generic/TraversableTemplate;;
const #752 = Asciz	(Lscala/collection/generic/TraversableTemplate;I)Lscala/collection/generic/TraversableTemplate;;
const #753 = NameAndType	#750:#752;//  drop:(Lscala/collection/generic/TraversableTemplate;I)Lscala/collection/generic/TraversableTemplate;
const #754 = Method	#12.#753;	//  scala/collection/generic/TraversableTemplate$class.drop:(Lscala/collection/generic/TraversableTemplate;I)Lscala/collection/generic/TraversableTemplate;
const #755 = Asciz	take;
const #756 = NameAndType	#755:#752;//  take:(Lscala/collection/generic/TraversableTemplate;I)Lscala/collection/generic/TraversableTemplate;
const #757 = Method	#12.#756;	//  scala/collection/generic/TraversableTemplate$class.take:(Lscala/collection/generic/TraversableTemplate;I)Lscala/collection/generic/TraversableTemplate;
const #758 = Asciz	init;
const #759 = Asciz	(Lscala/collection/generic/TraversableTemplate;)Lscala/collection/generic/TraversableTemplate;;
const #760 = NameAndType	#758:#759;//  init:(Lscala/collection/generic/TraversableTemplate;)Lscala/collection/generic/TraversableTemplate;
const #761 = Method	#12.#760;	//  scala/collection/generic/TraversableTemplate$class.init:(Lscala/collection/generic/TraversableTemplate;)Lscala/collection/generic/TraversableTemplate;
const #762 = Asciz	lastOption;
const #763 = Asciz	()Lscala/Option;;
const #764 = Asciz	(Lscala/collection/generic/TraversableTemplate;)Lscala/Option;;
const #765 = NameAndType	#762:#764;//  lastOption:(Lscala/collection/generic/TraversableTemplate;)Lscala/Option;
const #766 = Method	#12.#765;	//  scala/collection/generic/TraversableTemplate$class.lastOption:(Lscala/collection/generic/TraversableTemplate;)Lscala/Option;
const #767 = Asciz	last;
const #768 = Asciz	(Lscala/collection/generic/TraversableTemplate;)Ljava/lang/Object;;
const #769 = NameAndType	#767:#768;//  last:(Lscala/collection/generic/TraversableTemplate;)Ljava/lang/Object;
const #770 = Method	#12.#769;	//  scala/collection/generic/TraversableTemplate$class.last:(Lscala/collection/generic/TraversableTemplate;)Ljava/lang/Object;
const #771 = Asciz	tail;
const #772 = NameAndType	#771:#759;//  tail:(Lscala/collection/generic/TraversableTemplate;)Lscala/collection/generic/TraversableTemplate;
const #773 = Method	#12.#772;	//  scala/collection/generic/TraversableTemplate$class.tail:(Lscala/collection/generic/TraversableTemplate;)Lscala/collection/generic/TraversableTemplate;
const #774 = Asciz	headOption;
const #775 = NameAndType	#774:#764;//  headOption:(Lscala/collection/generic/TraversableTemplate;)Lscala/Option;
const #776 = Method	#12.#775;	//  scala/collection/generic/TraversableTemplate$class.headOption:(Lscala/collection/generic/TraversableTemplate;)Lscala/Option;
const #777 = Asciz	reduceRightOption;
const #778 = Asciz	(Lscala/Function2;)Lscala/Option;;
const #779 = Asciz	(Lscala/collection/generic/TraversableTemplate;Lscala/Function2;)Lscala/Option;;
const #780 = NameAndType	#777:#779;//  reduceRightOption:(Lscala/collection/generic/TraversableTemplate;Lscala/Function2;)Lscala/Option;
const #781 = Method	#12.#780;	//  scala/collection/generic/TraversableTemplate$class.reduceRightOption:(Lscala/collection/generic/TraversableTemplate;Lscala/Function2;)Lscala/Option;
const #782 = Asciz	op;
const #783 = Asciz	reduceLeftOption;
const #784 = NameAndType	#783:#779;//  reduceLeftOption:(Lscala/collection/generic/TraversableTemplate;Lscala/Function2;)Lscala/Option;
const #785 = Method	#12.#784;	//  scala/collection/generic/TraversableTemplate$class.reduceLeftOption:(Lscala/collection/generic/TraversableTemplate;Lscala/Function2;)Lscala/Option;
const #786 = Asciz	reduceLeft;
const #787 = Asciz	(Lscala/Function2;)Ljava/lang/Object;;
const #788 = Asciz	(Lscala/collection/generic/TraversableTemplate;Lscala/Function2;)Ljava/lang/Object;;
const #789 = NameAndType	#786:#788;//  reduceLeft:(Lscala/collection/generic/TraversableTemplate;Lscala/Function2;)Ljava/lang/Object;
const #790 = Method	#12.#789;	//  scala/collection/generic/TraversableTemplate$class.reduceLeft:(Lscala/collection/generic/TraversableTemplate;Lscala/Function2;)Ljava/lang/Object;
const #791 = Asciz	$colon$bslash;
const #792 = Asciz	(Ljava/lang/Object;Lscala/Function2;)Ljava/lang/Object;;
const #793 = Asciz	(Lscala/collection/generic/TraversableTemplate;Ljava/lang/Object;Lscala/Function2;)Ljava/lang/Object;;
const #794 = NameAndType	#791:#793;//  $colon$bslash:(Lscala/collection/generic/TraversableTemplate;Ljava/lang/Object;Lscala/Function2;)Ljava/lang/Object;
const #795 = Method	#12.#794;	//  scala/collection/generic/TraversableTemplate$class.$colon$bslash:(Lscala/collection/generic/TraversableTemplate;Ljava/lang/Object;Lscala/Function2;)Ljava/lang/Object;
const #796 = Asciz	z;
const #797 = Asciz	$div$colon;
const #798 = NameAndType	#797:#793;//  $div$colon:(Lscala/collection/generic/TraversableTemplate;Ljava/lang/Object;Lscala/Function2;)Ljava/lang/Object;
const #799 = Method	#12.#798;	//  scala/collection/generic/TraversableTemplate$class.$div$colon:(Lscala/collection/generic/TraversableTemplate;Ljava/lang/Object;Lscala/Function2;)Ljava/lang/Object;
const #800 = Asciz	foldLeft;
const #801 = NameAndType	#800:#793;//  foldLeft:(Lscala/collection/generic/TraversableTemplate;Ljava/lang/Object;Lscala/Function2;)Ljava/lang/Object;
const #802 = Method	#12.#801;	//  scala/collection/generic/TraversableTemplate$class.foldLeft:(Lscala/collection/generic/TraversableTemplate;Ljava/lang/Object;Lscala/Function2;)Ljava/lang/Object;
const #803 = Asciz	find;
const #804 = Asciz	(Lscala/Function1;)Lscala/Option;;
const #805 = Asciz	(Lscala/collection/generic/TraversableTemplate;Lscala/Function1;)Lscala/Option;;
const #806 = NameAndType	#803:#805;//  find:(Lscala/collection/generic/TraversableTemplate;Lscala/Function1;)Lscala/Option;
const #807 = Method	#12.#806;	//  scala/collection/generic/TraversableTemplate$class.find:(Lscala/collection/generic/TraversableTemplate;Lscala/Function1;)Lscala/Option;
const #808 = Asciz	count;
const #809 = Asciz	(Lscala/Function1;)I;
const #810 = Asciz	(Lscala/collection/generic/TraversableTemplate;Lscala/Function1;)I;
const #811 = NameAndType	#808:#810;//  count:(Lscala/collection/generic/TraversableTemplate;Lscala/Function1;)I
const #812 = Method	#12.#811;	//  scala/collection/generic/TraversableTemplate$class.count:(Lscala/collection/generic/TraversableTemplate;Lscala/Function1;)I
const #813 = Asciz	exists;
const #814 = Asciz	(Lscala/Function1;)Z;
const #815 = Asciz	(Lscala/collection/generic/TraversableTemplate;Lscala/Function1;)Z;
const #816 = NameAndType	#813:#815;//  exists:(Lscala/collection/generic/TraversableTemplate;Lscala/Function1;)Z
const #817 = Method	#12.#816;	//  scala/collection/generic/TraversableTemplate$class.exists:(Lscala/collection/generic/TraversableTemplate;Lscala/Function1;)Z
const #818 = Asciz	forall;
const #819 = NameAndType	#818:#815;//  forall:(Lscala/collection/generic/TraversableTemplate;Lscala/Function1;)Z
const #820 = Method	#12.#819;	//  scala/collection/generic/TraversableTemplate$class.forall:(Lscala/collection/generic/TraversableTemplate;Lscala/Function1;)Z
const #821 = Asciz	groupBy;
const #822 = Asciz	(Lscala/Function1;)Lscala/collection/Map;;
const #823 = Asciz	(Lscala/collection/generic/TraversableTemplate;Lscala/Function1;)Lscala/collection/Map;;
const #824 = NameAndType	#821:#823;//  groupBy:(Lscala/collection/generic/TraversableTemplate;Lscala/Function1;)Lscala/collection/Map;
const #825 = Method	#12.#824;	//  scala/collection/generic/TraversableTemplate$class.groupBy:(Lscala/collection/generic/TraversableTemplate;Lscala/Function1;)Lscala/collection/Map;
const #826 = Asciz	partition;
const #827 = NameAndType	#826:#735;//  partition:(Lscala/collection/generic/TraversableTemplate;Lscala/Function1;)Lscala/Tuple2;
const #828 = Method	#12.#827;	//  scala/collection/generic/TraversableTemplate$class.partition:(Lscala/collection/generic/TraversableTemplate;Lscala/Function1;)Lscala/Tuple2;
const #829 = Asciz	remove;
const #830 = NameAndType	#829:#739;//  remove:(Lscala/collection/generic/TraversableTemplate;Lscala/Function1;)Lscala/collection/generic/TraversableTemplate;
const #831 = Method	#12.#830;	//  scala/collection/generic/TraversableTemplate$class.remove:(Lscala/collection/generic/TraversableTemplate;Lscala/Function1;)Lscala/collection/generic/TraversableTemplate;
const #832 = Asciz	filterMap;
const #833 = Asciz	(Lscala/PartialFunction;Lscala/collection/generic/BuilderFactory;)Ljava/lang/Object;;
const #834 = Asciz	(Lscala/collection/generic/TraversableTemplate;Lscala/PartialFunction;Lscala/collection/generic/BuilderFactory;)Ljava/lang/Object;;
const #835 = NameAndType	#832:#834;//  filterMap:(Lscala/collection/generic/TraversableTemplate;Lscala/PartialFunction;Lscala/collection/generic/BuilderFactory;)Ljava/lang/Object;
const #836 = Method	#12.#835;	//  scala/collection/generic/TraversableTemplate$class.filterMap:(Lscala/collection/generic/TraversableTemplate;Lscala/PartialFunction;Lscala/collection/generic/BuilderFactory;)Ljava/lang/Object;
const #837 = Asciz	pf;
const #838 = Asciz	Lscala/PartialFunction;;
const #839 = Asciz	bf;
const #840 = Asciz	Lscala/collection/generic/BuilderFactory;;
const #841 = Asciz	flatMap;
const #842 = Asciz	(Lscala/Function1;Lscala/collection/generic/BuilderFactory;)Ljava/lang/Object;;
const #843 = Asciz	(Lscala/collection/generic/TraversableTemplate;Lscala/Function1;Lscala/collection/generic/BuilderFactory;)Ljava/lang/Object;;
const #844 = NameAndType	#841:#843;//  flatMap:(Lscala/collection/generic/TraversableTemplate;Lscala/Function1;Lscala/collection/generic/BuilderFactory;)Ljava/lang/Object;
const #845 = Method	#12.#844;	//  scala/collection/generic/TraversableTemplate$class.flatMap:(Lscala/collection/generic/TraversableTemplate;Lscala/Function1;Lscala/collection/generic/BuilderFactory;)Ljava/lang/Object;
const #846 = Asciz	map;
const #847 = NameAndType	#846:#843;//  map:(Lscala/collection/generic/TraversableTemplate;Lscala/Function1;Lscala/collection/generic/BuilderFactory;)Ljava/lang/Object;
const #848 = Method	#12.#847;	//  scala/collection/generic/TraversableTemplate$class.map:(Lscala/collection/generic/TraversableTemplate;Lscala/Function1;Lscala/collection/generic/BuilderFactory;)Ljava/lang/Object;
const #849 = Asciz	(Lscala/collection/Iterator;Lscala/collection/generic/BuilderFactory;)Ljava/lang/Object;;
const #850 = Asciz	(Lscala/collection/generic/TraversableTemplate;Lscala/collection/Iterator;Lscala/collection/generic/BuilderFactory;)Ljava/lang/Object;;
const #851 = NameAndType	#162:#850;//  $plus$plus:(Lscala/collection/generic/TraversableTemplate;Lscala/collection/Iterator;Lscala/collection/generic/BuilderFactory;)Ljava/lang/Object;
[...]
  LineNumberTable: 
   line 136: 0


public java.lang.Object first();
  Code:
   Stack=1, Locals=1, Args_size=1
   0:	aload_0
   1:	invokestatic	#899; //Method scala/collection/generic/IterableTemplate$class.first:(Lscala/collection/generic/IterableTemplate;)Ljava/lang/Object;
   4:	areturn
  LineNumberTable: 
   line 136: 0


public scala.collection.generic.IterableView view(int, int);
  Code:
   Stack=3, Locals=3, Args_size=3
   0:	aload_0
   1:	iload_1
   2:	iload_2
   3:	invokestatic	#902; //Method scala/collection/generic/IterableTemplate$class.view:(Lscala/collection/generic/IterableTemplate;II)Lscala/collection/generic/IterableView;
   6:	areturn
  LineNumberTable: 
   line 136: 0

  LocalVariableTable: 
   Start  Length  Slot  Name   Signature
   0      7      0    this       Lscala/collection/immutable/IntMap;
   0      7      1    from       I
   0      7      2    until       I


public java.lang.Object view();
  Code:
   Stack=1, Locals=1, Args_size=1
   0:	aload_0
   1:	invokestatic	#904; //Method scala/collection/generic/IterableTemplate$class.view:(Lscala/collection/generic/IterableTemplate;)Ljava/lang/Object;
   4:	areturn
  LineNumberTable: 
   line 136: 0


public scala.collection.immutable.Stream toStream();
  Code:
   Stack=1, Locals=1, Args_size=1
   0:	aload_0
   1:	invokestatic	#909; //Method scala/collection/generic/IterableTemplate$class.toStream:(Lscala/collection/generic/IterableTemplate;)Lscala/collection/immutable/Stream;
   4:	areturn
  LineNumberTable: 
   line 136: 0


public boolean sameElements(scala.collection.Iterable);
  Code:
   Stack=2, Locals=2, Args_size=2
   0:	aload_0
   1:	aload_1
   2:	invokestatic	#914; //Method scala/collection/generic/IterableTemplate$class.sameElements:(Lscala/collection/generic/IterableTemplate;Lscala/collection/Iterable;)Z
   5:	ireturn
  LineNumberTable: 
   line 136: 0

  LocalVariableTable: 
   Start  Length  Slot  Name   Signature
   0      6      0    this       Lscala/collection/immutable/IntMap;
   0      6      1    that       Lscala/collection/Iterable;


public scala.collection.generic.IterableTemplate dropRight(int);
  Code:
   Stack=2, Locals=2, Args_size=2
   0:	aload_0
   1:	iload_1
   2:	invokestatic	#920; //Method scala/collection/generic/IterableTemplate$class.dropRight:(Lscala/collection/generic/IterableTemplate;I)Lscala/collection/generic/IterableTemplate;
   5:	areturn
  LineNumberTable: 
   line 136: 0

  LocalVariableTable: 
   Start  Length  Slot  Name   Signature
   0      6      0    this       Lscala/collection/immutable/IntMap;
   0      6      1    n       I


public scala.collection.generic.IterableTemplate takeRight(int);
  Code:
   Stack=2, Locals=2, Args_size=2
   0:	aload_0
   1:	iload_1
   2:	invokestatic	#923; //Method scala/collection/generic/IterableTemplate$class.takeRight:(Lscala/collection/generic/IterableTemplate;I)Lscala/collection/generic/IterableTemplate;
   5:	areturn
  LineNumberTable: 
   line 136: 0

  LocalVariableTable: 
   Start  Length  Slot  Name   Signature
   0      6      0    this       Lscala/collection/immutable/IntMap;
   0      6      1    n       I


public java.lang.Object head();
  Code:
   Stack=1, Locals=1, Args_size=1
   0:	aload_0
   1:	invokestatic	#926; //Method scala/collection/generic/IterableTemplate$class.head:(Lscala/collection/generic/IterableTemplate;)Ljava/lang/Object;
   4:	areturn
  LineNumberTable: 
   line 136: 0


public scala.collection.Iterable toIterable();
  Code:
   Stack=1, Locals=1, Args_size=1
   0:	aload_0
   1:	invokestatic	#931; //Method scala/collection/generic/IterableTemplate$class.toIterable:(Lscala/collection/generic/IterableTemplate;)Lscala/collection/Iterable;
   4:	areturn
  LineNumberTable: 
   line 136: 0


public java.lang.Object reduceRight(scala.Function2);
  Code:
   Stack=2, Locals=2, Args_size=2
   0:	aload_0
   1:	aload_1
   2:	invokestatic	#935; //Method scala/collection/generic/IterableTemplate$class.reduceRight:(Lscala/collection/generic/IterableTemplate;Lscala/Function2;)Ljava/lang/Object;
   5:	areturn
  LineNumberTable: 
   line 136: 0

  LocalVariableTable: 
   Start  Length  Slot  Name   Signature
   0      6      0    this       Lscala/collection/immutable/IntMap;
   0      6      1    op       Lscala/Function2;


public java.lang.Object foldRight(java.lang.Object, scala.Function2);
  Code:
   Stack=3, Locals=3, Args_size=3
   0:	aload_0
   1:	aload_1
   2:	aload_2
   3:	invokestatic	#939; //Method scala/collection/generic/IterableTemplate$class.foldRight:(Lscala/collection/generic/IterableTemplate;Ljava/lang/Object;Lscala/Function2;)Ljava/lang/Object;
   6:	areturn
  LineNumberTable: 
   line 136: 0

  LocalVariableTable: 
   Start  Length  Slot  Name   Signature
   0      7      0    this       Lscala/collection/immutable/IntMap;
   0      7      1    z       Ljava/lang/Object;
   0      7      2    op       Lscala/Function2;


public scala.collection.Iterator elements();
  Code:
   Stack=1, Locals=1, Args_size=1
   0:	aload_0
   1:	invokestatic	#943; //Method scala/collection/generic/IterableTemplate$class.elements:(Lscala/collection/generic/IterableTemplate;)Lscala/collection/Iterator;
   4:	areturn
  LineNumberTable: 
   line 136: 0


public scala.collection.generic.Companion companion();
  Code:
   Stack=1, Locals=1, Args_size=1
   0:	aload_0
   1:	invokestatic	#948; //Method scala/collection/immutable/Iterable$class.companion:(Lscala/collection/immutable/Iterable;)Lscala/collection/generic/Companion;
   4:	areturn
  LineNumberTable: 
   line 136: 0


public scala.Function1 compose(scala.Function1);
  Code:
   Stack=2, Locals=2, Args_size=2
   0:	aload_0
   1:	aload_1
   2:	invokestatic	#952; //Method scala/Function1$class.compose:(Lscala/Function1;Lscala/Function1;)Lscala/Function1;
   5:	areturn
  LineNumberTable: 
   line 136: 0

  LocalVariableTable: 
   Start  Length  Slot  Name   Signature
   0      6      0    this       Lscala/collection/immutable/IntMap;
   0      6      1    g       Lscala/Function1;


public scala.PartialFunction andThen(scala.Function1);
  Code:
   Stack=2, Locals=2, Args_size=2
   0:	aload_0
   1:	aload_1
   2:	invokestatic	#955; //Method scala/PartialFunction$class.andThen:(Lscala/PartialFunction;Lscala/Function1;)Lscala/PartialFunction;
   5:	areturn
  LineNumberTable: 
   line 136: 0

  LocalVariableTable: 
   Start  Length  Slot  Name   Signature
   0      6      0    this       Lscala/collection/immutable/IntMap;
   0      6      1    k       Lscala/Function1;


public scala.PartialFunction orElse(scala.PartialFunction);
  Code:
   Stack=2, Locals=2, Args_size=2
   0:	aload_0
   1:	aload_1
   2:	invokestatic	#961; //Method scala/PartialFunction$class.orElse:(Lscala/PartialFunction;Lscala/PartialFunction;)Lscala/PartialFunction;
   5:	areturn
  LineNumberTable: 
   line 136: 0

  LocalVariableTable: 
   Start  Length  Slot  Name   Signature
   0      6      0    this       Lscala/collection/immutable/IntMap;
   0      6      1    that       Lscala/PartialFunction;


public scala.collection.generic.Subtractable $minus$minus(scala.collection.Iterator);
  Code:
   Stack=2, Locals=2, Args_size=2
   0:	aload_0
   1:	aload_1
   2:	invokestatic	#966; //Method scala/collection/generic/Subtractable$class.$minus$minus:(Lscala/collection/generic/Subtractable;Lscala/collection/Iterator;)Lscala/collection/generic/Subtractable;
   5:	areturn
  LineNumberTable: 
   line 136: 0

  LocalVariableTable: 
   Start  Length  Slot  Name   Signature
   0      6      0    this       Lscala/collection/immutable/IntMap;
   0      6      1    iter       Lscala/collection/Iterator;


public scala.collection.generic.Subtractable $minus$minus(scala.collection.Traversable);
  Code:
   Stack=2, Locals=2, Args_size=2
   0:	aload_0
   1:	aload_1
   2:	invokestatic	#970; //Method scala/collection/generic/Subtractable$class.$minus$minus:(Lscala/collection/generic/Subtractable;Lscala/collection/Traversable;)Lscala/collection/generic/Subtractable;
   5:	areturn
  LineNumberTable: 
   line 136: 0

  LocalVariableTable: 
   Start  Length  Slot  Name   Signature
   0      6      0    this       Lscala/collection/immutable/IntMap;
   0      6      1    elems       Lscala/collection/Traversable;


public scala.collection.generic.Subtractable $minus(java.lang.Object, java.lang.Object, scala.collection.Sequence);
  Code:
   Stack=4, Locals=4, Args_size=4
   0:	aload_0
   1:	aload_1
   2:	aload_2
   3:	aload_3
   4:	invokestatic	#974; //Method scala/collection/generic/Subtractable$class.$minus:(Lscala/collection/generic/Subtractable;Ljava/lang/Object;Ljava/lang/Object;Lscala/collection/Sequence;)Lscala/collection/generic/Subtractable;
   7:	areturn
  LineNumberTable: 
   line 136: 0

  LocalVariableTable: 
   Start  Length  Slot  Name   Signature
   0      8      0    this       Lscala/collection/immutable/IntMap;
   0      8      1    elem1       Ljava/lang/Object;
   0      8      2    elem2       Ljava/lang/Object;
   0      8      3    elems       Lscala/collection/Sequence;


public java.lang.String toString();
  Code:
   Stack=1, Locals=1, Args_size=1
   0:	aload_0
   1:	invokestatic	#977; //Method scala/collection/generic/MapTemplate$class.toString:(Lscala/collection/generic/MapTemplate;)Ljava/lang/String;
   4:	areturn
  LineNumberTable: 
   line 136: 0


public boolean equals(java.lang.Object);
  Code:
   Stack=2, Locals=2, Args_size=2
   0:	aload_0
   1:	aload_1
   2:	invokestatic	#980; //Method scala/collection/generic/MapTemplate$class.equals:(Lscala/collection/generic/MapTemplate;Ljava/lang/Object;)Z
   5:	ireturn
  LineNumberTable: 
   line 136: 0

  LocalVariableTable: 
   Start  Length  Slot  Name   Signature
   0      6      0    this       Lscala/collection/immutable/IntMap;
   0      6      1    that       Ljava/lang/Object;


public scala.collection.mutable.StringBuilder addString(scala.collection.mutable.StringBuilder, java.lang.String, java.lang.String, java.lang.String);
  Code:
   Stack=5, Locals=5, Args_size=5
   0:	aload_0
   1:	aload_1
   2:	aload_2
   3:	aload_3
   4:	aload	4
   6:	invokestatic	#984; //Method scala/collection/generic/MapTemplate$class.addString:(Lscala/collection/generic/MapTemplate;Lscala/collection/mutable/StringBuilder;Ljava/lang/String;Ljava/lang/String;Ljava/lang/String;)Lscala/collection/mutable/StringBuilder;
   9:	areturn
  LineNumberTable: 
   line 136: 0

  LocalVariableTable: 
   Start  Length  Slot  Name   Signature
   0      10      0    this       Lscala/collection/immutable/IntMap;
   0      10      1    b       Lscala/collection/mutable/StringBuilder;
   0      10      2    start       Ljava/lang/String;
   0      10      3    sep       Ljava/lang/String;
   0      10      4    end       Ljava/lang/String;


public java.lang.Object mapElements(scala.Function1);
  Code:
   Stack=2, Locals=2, Args_size=2
   0:	aload_0
   1:	aload_1
   2:	invokestatic	#989; //Method scala/collection/generic/MapTemplate$class.mapElements:(Lscala/collection/generic/MapTemplate;Lscala/Function1;)Ljava/lang/Object;
   5:	areturn
  LineNumberTable: 
   line 136: 0

  LocalVariableTable: 
   Start  Length  Slot  Name   Signature
   0      6      0    this       Lscala/collection/immutable/IntMap;
   0      6      1    f       Lscala/Function1;


public java.lang.Object mapValues(scala.Function1);
  Code:
   Stack=2, Locals=2, Args_size=2
   0:	aload_0
   1:	aload_1
   2:	invokestatic	#992; //Method scala/collection/generic/MapTemplate$class.mapValues:(Lscala/collection/generic/MapTemplate;Lscala/Function1;)Ljava/lang/Object;
   5:	areturn
  LineNumberTable: 
   line 136: 0

  LocalVariableTable: 
   Start  Length  Slot  Name   Signature
   0      6      0    this       Lscala/collection/immutable/IntMap;
   0      6      1    f       Lscala/Function1;


public java.lang.Object filterKeys(scala.Function1);
  Code:
   Stack=2, Locals=2, Args_size=2
   0:	aload_0
   1:	aload_1
   2:	invokestatic	#995; //Method scala/collection/generic/MapTemplate$class.filterKeys:(Lscala/collection/generic/MapTemplate;Lscala/Function1;)Ljava/lang/Object;
   5:	areturn
  LineNumberTable: 
   line 136: 0

  LocalVariableTable: 
   Start  Length  Slot  Name   Signature
   0      6      0    this       Lscala/collection/immutable/IntMap;
   0      6      1    p       Lscala/Function1;


public java.lang.Object default(java.lang.Object);
  Code:
   Stack=2, Locals=2, Args_size=2
   0:	aload_0
   1:	aload_1
   2:	invokestatic	#998; //Method scala/collection/generic/MapTemplate$class.default:(Lscala/collection/generic/MapTemplate;Ljava/lang/Object;)Ljava/lang/Object;
   5:	areturn
  LineNumberTable: 
   line 136: 0

  LocalVariableTable: 
   Start  Length  Slot  Name   Signature
   0      6      0    this       Lscala/collection/immutable/IntMap;
   0      6      1    key       Ljava/lang/Object;


public scala.collection.Iterator values();
  Code:
   Stack=1, Locals=1, Args_size=1
   0:	aload_0
   1:	invokestatic	#1002; //Method scala/collection/generic/MapTemplate$class.values:(Lscala/collection/generic/MapTemplate;)Lscala/collection/Iterator;
   4:	areturn
  LineNumberTable: 
   line 136: 0


public scala.collection.Iterable valueIterable();
  Code:
   Stack=1, Locals=1, Args_size=1
   0:	aload_0
   1:	invokestatic	#1006; //Method scala/collection/generic/MapTemplate$class.valueIterable:(Lscala/collection/generic/MapTemplate;)Lscala/collection/Iterable;
   4:	areturn
  LineNumberTable: 
   line 136: 0


public scala.collection.Iterator keys();
  Code:
   Stack=1, Locals=1, Args_size=1
   0:	aload_0
   1:	invokestatic	#1009; //Method scala/collection/generic/MapTemplate$class.keys:(Lscala/collection/generic/MapTemplate;)Lscala/collection/Iterator;
   4:	areturn
  LineNumberTable: 
   line 136: 0


public scala.collection.Set keySet();
  Code:
   Stack=1, Locals=1, Args_size=1
   0:	aload_0
   1:	invokestatic	#1014; //Method scala/collection/generic/MapTemplate$class.keySet:(Lscala/collection/generic/MapTemplate;)Lscala/collection/Set;
   4:	areturn
  LineNumberTable: 
   line 136: 0


public boolean isDefinedAt(java.lang.Object);
  Code:
   Stack=2, Locals=2, Args_size=2
   0:	aload_0
   1:	aload_1
   2:	invokestatic	#1017; //Method scala/collection/generic/MapTemplate$class.isDefinedAt:(Lscala/collection/generic/MapTemplate;Ljava/lang/Object;)Z
   5:	ireturn
  LineNumberTable: 
   line 136: 0

  LocalVariableTable: 
   Start  Length  Slot  Name   Signature
   0      6      0    this       Lscala/collection/immutable/IntMap;
   0      6      1    key       Ljava/lang/Object;


public boolean contains(java.lang.Object);
  Code:
   Stack=2, Locals=2, Args_size=2
   0:	aload_0
   1:	aload_1
   2:	invokestatic	#1020; //Method scala/collection/generic/MapTemplate$class.contains:(Lscala/collection/generic/MapTemplate;Ljava/lang/Object;)Z
   5:	ireturn
  LineNumberTable: 
   line 136: 0

  LocalVariableTable: 
   Start  Length  Slot  Name   Signature
   0      6      0    this       Lscala/collection/immutable/IntMap;
   0      6      1    key       Ljava/lang/Object;


public scala.collection.generic.Builder newBuilder();
  Code:
   Stack=1, Locals=1, Args_size=1
   0:	aload_0
   1:	invokestatic	#1024; //Method scala/collection/generic/MapTemplate$class.newBuilder:(Lscala/collection/generic/MapTemplate;)Lscala/collection/generic/Builder;
   4:	areturn
  LineNumberTable: 
   line 136: 0


public scala.collection.generic.ImmutableMapTemplate filterNot(scala.Function1);
  Code:
   Stack=2, Locals=2, Args_size=2
   0:	aload_0
   1:	aload_1
   2:	invokestatic	#1027; //Method scala/collection/generic/ImmutableMapTemplate$class.filterNot:(Lscala/collection/generic/ImmutableMapTemplate;Lscala/Function1;)Lscala/collection/generic/ImmutableMapTemplate;
   5:	areturn
  LineNumberTable: 
   line 136: 0

  LocalVariableTable: 
   Start  Length  Slot  Name   Signature
   0      6      0    this       Lscala/collection/immutable/IntMap;
   0      6      1    p       Lscala/Function1;


public java.lang.Object transform(scala.Function2, scala.collection.generic.BuilderFactory);
  Code:
   Stack=3, Locals=3, Args_size=3
   0:	aload_0
   1:	aload_1
   2:	aload_2
   3:	invokestatic	#1031; //Method scala/collection/generic/ImmutableMapTemplate$class.transform:(Lscala/collection/generic/ImmutableMapTemplate;Lscala/Function2;Lscala/collection/generic/BuilderFactory;)Ljava/lang/Object;
   6:	areturn
  LineNumberTable: 
   line 136: 0

  LocalVariableTable: 
   Start  Length  Slot  Name   Signature
   0      7      0    this       Lscala/collection/immutable/IntMap;
   0      7      1    f       Lscala/Function2;
   0      7      2    bf       Lscala/collection/generic/BuilderFactory;


public scala.collection.immutable.Map $plus$plus(scala.collection.Iterator);
  Code:
   Stack=2, Locals=2, Args_size=2
   0:	aload_0
   1:	aload_1
   2:	invokestatic	#1034; //Method scala/collection/generic/ImmutableMapTemplate$class.$plus$plus:(Lscala/collection/generic/ImmutableMapTemplate;Lscala/collection/Iterator;)Lscala/collection/immutable/Map;
   5:	areturn
  LineNumberTable: 
   line 136: 0

  LocalVariableTable: 
   Start  Length  Slot  Name   Signature
   0      6      0    this       Lscala/collection/immutable/IntMap;
   0      6      1    iter       Lscala/collection/Iterator;


public scala.collection.immutable.Map $plus$plus(scala.collection.Traversable);
  Code:
   Stack=2, Locals=2, Args_size=2
   0:	aload_0
   1:	aload_1
   2:	invokestatic	#1037; //Method scala/collection/generic/ImmutableMapTemplate$class.$plus$plus:(Lscala/collection/generic/ImmutableMapTemplate;Lscala/collection/Traversable;)Lscala/collection/immutable/Map;
   5:	areturn
  LineNumberTable: 
   line 136: 0

  LocalVariableTable: 
   Start  Length  Slot  Name   Signature
   0      6      0    this       Lscala/collection/immutable/IntMap;
   0      6      1    elems       Lscala/collection/Traversable;


public scala.collection.immutable.Map $plus(scala.Tuple2, scala.Tuple2, scala.collection.Sequence);
  Code:
   Stack=4, Locals=4, Args_size=4
   0:	aload_0
   1:	aload_1
   2:	aload_2
   3:	aload_3
   4:	invokestatic	#1040; //Method scala/collection/generic/ImmutableMapTemplate$class.$plus:(Lscala/collection/generic/ImmutableMapTemplate;Lscala/Tuple2;Lscala/Tuple2;Lscala/collection/Sequence;)Lscala/collection/immutable/Map;
   7:	areturn
  LineNumberTable: 
   line 136: 0

  LocalVariableTable: 
   Start  Length  Slot  Name   Signature
   0      8      0    this       Lscala/collection/immutable/IntMap;
   0      8      1    elem1       Lscala/Tuple2;
   0      8      2    elem2       Lscala/Tuple2;
   0      8      3    elems       Lscala/collection/Sequence;


public scala.collection.immutable.Map withDefaultValue(java.lang.Object);
  Code:
   Stack=2, Locals=2, Args_size=2
   0:	aload_0
   1:	aload_1
   2:	invokestatic	#1045; //Method scala/collection/immutable/Map$class.withDefaultValue:(Lscala/collection/immutable/Map;Ljava/lang/Object;)Lscala/collection/immutable/Map;
   5:	areturn
  LineNumberTable: 
   line 136: 0

  LocalVariableTable: 
   Start  Length  Slot  Name   Signature
   0      6      0    this       Lscala/collection/immutable/IntMap;
   0      6      1    d       Ljava/lang/Object;


public scala.collection.immutable.Map withDefault(scala.Function1);
  Code:
   Stack=2, Locals=2, Args_size=2
   0:	aload_0
   1:	aload_1
   2:	invokestatic	#1051; //Method scala/collection/immutable/Map$class.withDefault:(Lscala/collection/immutable/Map;Lscala/Function1;)Lscala/collection/immutable/Map;
   5:	areturn
  LineNumberTable: 
   line 136: 0

  LocalVariableTable: 
   Start  Length  Slot  Name   Signature
   0      6      0    this       Lscala/collection/immutable/IntMap;
   0      6      1    d       Lscala/Function1;


public int hashCode();
  Code:
   Stack=1, Locals=1, Args_size=1
   0:	aload_0
   1:	invokestatic	#1055; //Method scala/collection/immutable/Map$class.hashCode:(Lscala/collection/immutable/Map;)I
   4:	ireturn
  LineNumberTable: 
   line 136: 0


}

