Compiled from "List.scala"
public abstract class scala.collection.immutable.List extends java.lang.Object implements scala.collection.immutable.LinearSequence,scala.Product,scala.collection.generic.TraversableClass,scala.collection.generic.LinearSequenceTemplate,scala.ScalaObject
  SourceFile: "List.scala"
  Signature: length = 0x2
   03 79 
  ScalaSig: length = 0x13D4
   05 00 FFFFFF84 73 06 05 01 02 FFFFFF81 10 09 02 04 4C 69 73
   74 0A 02 03 04 01 09 69 6D 6D 75 74 61 62 6C 65
   0A 02 05 06 01 0A 63 6F 6C 6C 65 63 74 69 6F 6E
   0A 01 07 01 05 73 63 61 6C 61 03 00 15 02 0A 19
   13 07 00 0B 13 23 26 2D 31 10 02 0C 11 0D 01 0D
   0A 02 0E 0F 01 04 6C 61 6E 67 0A 01 10 01 04 6A
   61 76 61 09 02 12 0D 02 06 4F 62 6A 65 63 74 10
   03 14 15 17 0D 01 02 09 02 16 02 02 0E 4C 69 6E
   65 61 72 53 65 71 75 65 6E 63 65 10 02 18 19 0C
   00 04 08 1A 00 FFFFFF84 FFFFFF80 FFFFFF84 FFFFFFC2 00 1B 02 01 41 11 02
   1C 20 10 02 1D 1E 0D 01 06 09 02 1F 06 02 07 4E
   6F 74 68 69 6E 67 10 02 1D 21 09 02 22 06 02 03
   41 6E 79 10 02 1D 24 09 02 25 06 02 07 50 72 6F
   64 75 63 74 10 04 27 2A 17 2C 0D 01 28 0A 02 29
   04 01 07 67 65 6E 65 72 69 63 09 02 2B 28 02 10
   54 72 61 76 65 72 73 61 62 6C 65 43 6C 61 73 73
   10 02 14 00 10 04 27 2E 17 30 09 02 2F 28 02 16
   4C 69 6E 65 61 72 53 65 71 75 65 6E 63 65 54 65
   6D 70 6C 61 74 65 10 03 14 00 17 10 02 1D 32 09
   02 33 06 02 0B 53 63 61 6C 61 4F 62 6A 65 63 74
   08 05 35 00 FFFFFF84 00 36 01 06 3C 69 6E 69 74 3E 14
   01 30 08 05 38 00 FFFFFF84 20 39 01 09 63 6F 6D 70 61
   6E 69 6F 6E 15 01 3A 10 03 27 3B 2C 09 02 3C 28
   02 09 43 6F 6D 70 61 6E 69 6F 6E 08 05 3E 00 FFFFFF86
   00 3F 01 07 69 73 45 6D 70 74 79 15 01 40 10 02
   1D 41 09 02 42 06 02 07 42 6F 6F 6C 65 61 6E 08
   05 44 00 FFFFFF86 00 45 01 04 68 65 61 64 15 01 17 08
   05 47 00 FFFFFF86 00 48 01 04 74 61 69 6C 15 01 30 08
   05 4A 00 FFFFFF84 00 4B 01 0C 24 63 6F 6C 6F 6E 24 63
   6F 6C 6F 6E 15 02 4C 4F 14 02 4D 52 10 03 14 00
   4E 10 02 18 4F 04 08 50 49 FFFFFF84 FFFFFF80 FFFFFF80 FFFFFFC2 00 51 02
   01 42 11 02 17 20 08 05 53 49 FFFFFFC0 00 4E 01 01 78
   08 05 55 00 FFFFFF84 00 56 01 12 24 63 6F 6C 6F 6E 24
   63 6F 6C 6F 6E 24 63 6F 6C 6F 6E 15 02 57 5A 14
   02 58 5B 10 03 14 00 59 10 02 18 5A 04 08 50 54
   FFFFFF84 FFFFFF80 FFFFFF80 FFFFFFC2 00 51 08 05 5C 54 FFFFFFC0 00 58 01 06 70
   72 65 66 69 78 08 05 5E 00 FFFFFF84 00 5F 01 1A 72 65
   76 65 72 73 65 5F 24 63 6F 6C 6F 6E 24 63 6F 6C
   6F 6E 24 63 6F 6C 6F 6E 15 02 60 63 14 02 61 64
   10 03 14 00 62 10 02 18 63 04 08 50 5D FFFFFF84 FFFFFF80 FFFFFF80
   FFFFFFC2 00 51 08 05 5C 5D FFFFFFC0 00 61 08 05 66 00 FFFFFF84 00
   67 01 0A 72 65 76 65 72 73 65 4D 61 70 15 02 68
   6B 14 02 69 6C 10 03 14 00 6A 10 02 18 6B 04 08
   50 65 FFFFFF84 FFFFFF80 FFFFFF80 FFFFFFC2 00 1B 08 05 6D 65 FFFFFFC0 00 6E 01
   01 66 10 04 1D 6F 17 6A 09 02 70 06 02 09 46 75
   6E 63 74 69 6F 6E 31 08 05 72 00 FFFFFF84 00 73 01 0B
   6D 61 70 43 6F 6E 73 65 72 76 65 15 02 74 77 14
   02 75 78 10 03 14 00 76 10 02 18 77 04 08 50 71
   FFFFFF84 FFFFFF80 FFFFFF80 FFFFFFC2 00 51 08 05 6D 71 FFFFFFC0 00 79 10 04 1D
   6F 17 76 08 05 7B 00 FFFFFF84 20 7C 01 0A 24 70 6C 75
   73 24 70 6C 75 73 15 05 7D FFFFFF81 08 FFFFFF81 00 14 03 7E
   FFFFFF81 09 16 03 7F FFFFFF81 02 10 03 18 FFFFFF81 00 04 09 FFFFFF81 01
   7A FFFFFF84 FFFFFF80 FFFFFF80 FFFFFFC2 00 1B 02 04 54 68 61 74 08 07 FFFFFF81
   03 7A FFFFFFC0 01 FFFFFF81 04 01 02 62 66 10 07 27 FFFFFF81 05 FFFFFF81
   07 7F 30 09 03 FFFFFF81 06 28 02 0E 42 75 69 6C 64 65
   72 46 61 63 74 6F 72 79 10 03 18 FFFFFF81 08 04 08 50
   7A FFFFFF84 FFFFFF80 FFFFFF80 FFFFFFC2 00 51 08 07 FFFFFF81 0A 7A FFFFFFC0 00 FFFFFF81 0B
   01 04 74 68 61 74 10 06 FFFFFF81 0C FFFFFF81 0D FFFFFF81 07 0D 01
   04 09 03 FFFFFF81 0E 04 02 0B 54 72 61 76 65 72 73 61
   62 6C 65 08 06 7B 00 FFFFFF84 20 FFFFFF81 10 15 06 FFFFFF81 11 FFFFFF81
   18 FFFFFF81 14 14 04 FFFFFF81 12 FFFFFF81 19 16 04 FFFFFF81 13 FFFFFF81 15 10
   03 18 FFFFFF81 14 04 0A FFFFFF81 01 FFFFFF81 0F FFFFFF84 FFFFFF80 FFFFFF80 FFFFFFC2 00 1B
   08 08 FFFFFF81 03 FFFFFF81 0F FFFFFFC0 01 FFFFFF81 16 10 08 27 FFFFFF81 05 FFFFFF81
   17 FFFFFF81 13 30 10 03 18 FFFFFF81 18 04 09 50 FFFFFF81 0F FFFFFF84 FFFFFF80
   FFFFFF80 FFFFFFC2 00 51 08 08 FFFFFF81 0A FFFFFF81 0F FFFFFFC0 00 FFFFFF81 1A 10 06
   FFFFFF81 1B FFFFFF81 23 FFFFFF81 17 0E 04 FFFFFF81 1C FFFFFF81 21 0E 04 FFFFFF81 1D
   FFFFFF81 20 0D 02 FFFFFF81 1E 0A 03 FFFFFF81 1F 08 01 06 3C 72 6F
   6F 74 3E 09 01 07 09 03 FFFFFF81 22 06 01 07 70 61 63
   6B 61 67 65 09 04 FFFFFF81 24 FFFFFF81 25 02 08 49 74 65 72
   61 74 6F 72 0A 03 FFFFFF81 22 06 08 06 FFFFFF81 27 00 FFFFFF84 20
   48 01 06 74 6F 4C 69 73 74 08 07 FFFFFF81 29 00 FFFFFF84 20
   FFFFFF81 2A 01 04 74 61 6B 65 14 03 30 FFFFFF81 2B 08 08 FFFFFF81
   2C FFFFFF81 28 FFFFFFC0 00 FFFFFF81 2D 01 01 6E 10 03 1D FFFFFF81 2E 09
   03 FFFFFF81 2F 06 02 03 49 6E 74 08 07 FFFFFF81 31 00 FFFFFF84 20
   FFFFFF81 32 01 04 64 72 6F 70 14 03 30 FFFFFF81 33 08 08 FFFFFF81
   2C FFFFFF81 30 FFFFFFC0 00 FFFFFF81 2D 08 07 FFFFFF81 35 00 FFFFFF84 20 FFFFFF81 36
   01 05 73 6C 69 63 65 14 05 30 FFFFFF81 37 FFFFFF81 39 08 08
   FFFFFF81 38 FFFFFF81 34 FFFFFFC0 00 FFFFFF81 2D 01 05 73 74 61 72 74 08
   08 FFFFFF81 3A FFFFFF81 34 FFFFFFC0 00 FFFFFF81 2D 01 03 65 6E 64 08 07
   FFFFFF81 3C 00 FFFFFF84 20 FFFFFF81 3D 01 09 74 61 6B 65 52 69 67
   68 74 14 03 30 FFFFFF81 3E 08 08 FFFFFF81 2C FFFFFF81 3B FFFFFFC0 00 FFFFFF81
   2D 08 07 FFFFFF81 40 00 FFFFFF84 20 FFFFFF81 41 01 07 73 70 6C 69
   74 41 74 14 04 FFFFFF81 42 FFFFFF81 45 10 05 1D FFFFFF81 43 30 30
   09 03 FFFFFF81 44 06 02 06 54 75 70 6C 65 32 08 08 FFFFFF81
   2C FFFFFF81 3F FFFFFFC0 00 FFFFFF81 2D 08 07 FFFFFF81 47 00 FFFFFF84 20 FFFFFF81 48
   01 09 74 61 6B 65 57 68 69 6C 65 14 03 30 FFFFFF81 49
   08 08 FFFFFF81 4A FFFFFF81 46 FFFFFFC0 00 FFFFFF81 4B 01 01 70 10 04 1D
   6F 17 40 08 07 FFFFFF81 4D 00 FFFFFF84 20 FFFFFF81 4E 01 09 64 72
   6F 70 57 68 69 6C 65 14 03 30 FFFFFF81 4F 08 08 FFFFFF81 4A
   FFFFFF81 4C FFFFFFC0 00 FFFFFF81 4B 08 07 FFFFFF81 51 00 FFFFFF84 20 FFFFFF81 52 01
   04 73 70 61 6E 14 04 FFFFFF81 42 FFFFFF81 53 08 08 FFFFFF81 4A FFFFFF81
   50 FFFFFFC0 00 FFFFFF81 4B 08 06 FFFFFF81 55 00 FFFFFF84 20 48 01 07 72
   65 76 65 72 73 65 08 07 FFFFFF81 57 00 FFFFFF84 20 FFFFFF81 58 01
   0C 73 74 72 69 6E 67 50 72 65 66 69 78 15 02 FFFFFF81
   59 10 03 0C FFFFFF81 5A 09 03 FFFFFF81 5B 0D 02 06 53 74 72
   69 6E 67 08 07 FFFFFF81 5D 00 FFFFFF84 20 FFFFFF81 5E 01 08 74 6F
   53 74 72 65 61 6D 15 02 FFFFFF81 5F 10 04 14 FFFFFF81 60 17
   09 03 FFFFFF81 61 02 02 06 53 74 72 65 61 6D 08 07 FFFFFF81
   63 00 FFFFFF84 00 FFFFFF81 64 01 0C 24 6D 69 6E 75 73 24 6D
   69 6E 75 73 15 04 FFFFFF81 65 FFFFFF81 68 14 04 FFFFFF81 66 FFFFFF81 69
   10 04 14 00 FFFFFF81 67 10 03 18 FFFFFF81 68 04 09 50 FFFFFF81 62
   FFFFFF84 FFFFFF80 FFFFFF80 FFFFFFC2 00 51 08 08 FFFFFF81 0A FFFFFF81 62 FFFFFFC0 00 FFFFFF81 66
   28 06 FFFFFF81 62 FFFFFF81 6B FFFFFF81 6E 10 03 1D FFFFFF81 6C 09 03 FFFFFF81
   6D 06 02 0A 64 65 70 72 65 63 61 74 65 64 21 02
   FFFFFF81 6F 01 12 75 73 65 20 60 64 69 66 66 27 20 69
   6E 73 74 65 61 64 08 07 FFFFFF81 71 00 FFFFFF84 00 FFFFFF81 72 01
   06 24 6D 69 6E 75 73 15 04 FFFFFF81 73 FFFFFF81 76 14 04 FFFFFF81
   74 FFFFFF81 77 10 04 14 00 FFFFFF81 75 10 03 18 FFFFFF81 76 04 09
   50 FFFFFF81 70 FFFFFF84 FFFFFF80 FFFFFF80 FFFFFFC2 00 51 08 07 53 FFFFFF81 70 FFFFFFC0 00
   FFFFFF81 75 28 06 FFFFFF81 70 FFFFFF81 6B FFFFFF81 6E 08 07 FFFFFF81 7A 00 FFFFFF84
   00 FFFFFF81 7B 01 04 73 6F 72 74 14 03 30 FFFFFF81 7C 08 08
   FFFFFF81 7D FFFFFF81 79 FFFFFFC0 00 FFFFFF81 7E 01 02 6C 74 10 06 1D FFFFFF81
   7F 17 17 40 09 03 FFFFFF82 00 06 02 09 46 75 6E 63 74
   69 6F 6E 32 28 06 FFFFFF81 79 FFFFFF81 6B FFFFFF82 02 21 02 FFFFFF82 03
   01 16 75 73 65 20 60 73 6F 72 74 57 69 74 68 27
   20 69 6E 73 74 65 61 64 29 05 00 FFFFFF82 05 FFFFFF82 07 0A
   03 FFFFFF82 06 02 01 03 4E 69 6C 09 03 FFFFFF82 08 02 02 0C
   24 63 6F 6C 6F 6E 24 63 6F 6C 6F 6E 07 07 FFFFFF82 0A
   02 FFFFFF88 02 FFFFFF82 0B 01 04 4C 69 73 74 10 03 14 FFFFFF82 0C
   06 09 01 02 FFFFFF84 FFFFFF80 FFFFFF80 FFFFFF88 02 FFFFFF82 0D 13 05 FFFFFF82 0C FFFFFF82
   0E 31 10 04 27 FFFFFF82 0F 2C 09 03 FFFFFF82 10 28 02 0F 53
   65 71 75 65 6E 63 65 46 61 63 74 6F 72 79 08 07
   35 FFFFFF82 0C FFFFFF84 00 FFFFFF82 12 14 02 FFFFFF82 0B 08 08 FFFFFF82 14 FFFFFF82
   0C FFFFFF84 01 FFFFFF82 15 01 0E 62 75 69 6C 64 65 72 46 61
   63 74 6F 72 79 15 04 FFFFFF82 16 FFFFFF82 18 10 09 27 FFFFFF81 05
   FFFFFF82 17 FFFFFF82 19 FFFFFF82 1A 10 03 18 FFFFFF82 18 04 09 1A FFFFFF82 13
   FFFFFF84 FFFFFF80 FFFFFF80 FFFFFFC2 00 1B 10 04 14 00 FFFFFF82 17 10 04 FFFFFF82 1B
   FFFFFF82 1C 0D 02 FFFFFF82 0C 09 03 FFFFFF82 1D 3B 02 04 43 6F 6C
   6C 08 08 FFFFFF82 1F FFFFFF82 0C FFFFFF84 00 FFFFFF82 20 01 0A 6E 65 77
   42 75 69 6C 64 65 72 15 04 FFFFFF82 21 FFFFFF82 25 10 07 27
   FFFFFF82 22 FFFFFF82 24 FFFFFF82 26 09 03 FFFFFF82 23 28 02 07 42 75 69
   6C 64 65 72 10 03 18 FFFFFF82 25 04 09 1A FFFFFF82 1E FFFFFF84 FFFFFF80
   FFFFFF80 FFFFFFC2 00 1B 10 04 14 00 FFFFFF82 24 08 08 FFFFFF82 28 FFFFFF82 0C
   FFFFFF84 20 FFFFFF82 29 01 05 65 6D 70 74 79 15 04 FFFFFF82 2A FFFFFF82
   2C 10 04 14 00 FFFFFF82 2B 10 03 18 FFFFFF82 2C 04 09 1A FFFFFF82
   27 FFFFFF84 FFFFFF80 FFFFFF80 FFFFFFC2 00 1B 08 08 FFFFFF82 2E FFFFFF82 0C FFFFFF84 20 FFFFFF82
   2F 01 05 61 70 70 6C 79 15 04 FFFFFF82 30 FFFFFF82 33 14 04
   FFFFFF82 31 FFFFFF82 34 10 04 14 00 FFFFFF82 32 10 03 18 FFFFFF82 33 04
   09 1A FFFFFF82 2D FFFFFF84 FFFFFF80 FFFFFF80 FFFFFFC2 00 1B 08 08 FFFFFF82 35 FFFFFF82 2D
   FFFFFFC0 00 FFFFFF82 36 01 02 78 73 10 05 1D FFFFFF82 37 FFFFFF82 32 09
   03 FFFFFF82 38 06 02 0A 3C 72 65 70 65 61 74 65 64 3E
   08 08 FFFFFF82 3A FFFFFF82 0C FFFFFF84 00 FFFFFF82 3B 01 05 72 61 6E 67
   65 14 08 FFFFFF82 3C FFFFFF82 3D FFFFFF82 3E FFFFFF82 3F 10 04 14 00 FFFFFF81
   2D 08 08 FFFFFF81 38 FFFFFF82 39 FFFFFFC0 00 FFFFFF81 2D 08 08 FFFFFF81 3A FFFFFF82
   39 FFFFFFC0 00 FFFFFF81 2D 08 08 FFFFFF82 40 FFFFFF82 39 FFFFFFC0 00 FFFFFF82 41 01
   04 73 74 65 70 10 06 1D 6F FFFFFF81 2D FFFFFF81 2D 28 06 FFFFFF82
   39 FFFFFF81 6B FFFFFF82 43 21 02 FFFFFF82 44 01 15 75 73 65 20 60
   69 74 65 72 61 74 65 27 20 69 6E 73 74 65 61 64
   08 08 FFFFFF82 46 FFFFFF82 0C FFFFFF84 00 FFFFFF82 47 01 04 6D 61 6B 65
   15 04 FFFFFF82 48 FFFFFF82 4B 14 06 FFFFFF82 49 FFFFFF82 4C FFFFFF82 4D 10 04
   14 00 FFFFFF82 4A 10 03 18 FFFFFF82 4B 04 09 1A FFFFFF82 45 FFFFFF84 FFFFFF80
   FFFFFF80 FFFFFFC2 00 1B 08 08 FFFFFF81 2C FFFFFF82 45 FFFFFFC0 00 FFFFFF81 2D 08 08
   FFFFFF82 4E FFFFFF82 45 FFFFFFC0 00 FFFFFF82 4A 01 04 65 6C 65 6D 28 06
   FFFFFF82 45 FFFFFF81 6B FFFFFF82 50 21 02 FFFFFF82 51 01 12 75 73 65 20
   60 66 69 6C 6C 27 20 69 6E 73 74 65 61 64 08 08
   FFFFFF82 53 FFFFFF82 0C FFFFFF84 00 FFFFFF82 54 01 07 66 6C 61 74 74 65
   6E 15 04 FFFFFF82 55 FFFFFF82 58 14 04 FFFFFF82 56 FFFFFF82 59 10 04 14
   00 FFFFFF82 57 10 03 18 FFFFFF82 58 04 09 1A FFFFFF82 52 FFFFFF84 FFFFFF80 FFFFFF80
   FFFFFFC2 00 1B 08 08 FFFFFF82 5A FFFFFF82 52 FFFFFFC0 00 FFFFFF82 5B 01 03 78
   73 73 10 04 14 00 FFFFFF82 56 28 06 FFFFFF82 52 FFFFFF81 6B FFFFFF82 5D
   21 02 FFFFFF82 5E 01 19 75 73 65 20 60 78 73 73 2E 66
   6C 61 74 74 65 6E 27 20 69 6E 73 74 65 61 64 08
   08 FFFFFF82 60 FFFFFF82 0C FFFFFF84 00 FFFFFF82 61 01 05 75 6E 7A 69 70
   15 06 FFFFFF82 62 FFFFFF82 66 FFFFFF82 69 14 04 FFFFFF82 63 FFFFFF82 6A 10 07
   1D FFFFFF81 43 FFFFFF82 64 FFFFFF82 67 10 04 14 00 FFFFFF82 65 10 03 18
   FFFFFF82 66 04 09 1A FFFFFF82 5F FFFFFF84 FFFFFF80 FFFFFF80 FFFFFFC2 00 1B 10 04 14
   00 FFFFFF82 68 10 03 18 FFFFFF82 69 04 09 50 FFFFFF82 5F FFFFFF84 FFFFFF80 FFFFFF80
   FFFFFFC2 00 1B 08 08 FFFFFF82 35 FFFFFF82 5F FFFFFFC0 00 FFFFFF82 6B 10 04 14
   00 FFFFFF82 6C 10 07 1D FFFFFF81 43 FFFFFF82 65 FFFFFF82 68 28 06 FFFFFF82 5F
   FFFFFF81 6B FFFFFF82 6E 21 02 FFFFFF82 6F 01 16 75 73 65 20 60 78
   73 2E 75 6E 7A 69 70 27 20 69 6E 73 74 65 61 64
   08 08 FFFFFF82 60 FFFFFF82 0C FFFFFF84 00 FFFFFF82 71 15 06 FFFFFF82 72 FFFFFF82 76
   FFFFFF82 79 14 04 FFFFFF82 73 FFFFFF82 7A 10 07 1D FFFFFF81 43 FFFFFF82 74 FFFFFF82
   77 10 04 14 00 FFFFFF82 75 10 03 18 FFFFFF82 76 04 09 1A FFFFFF82
   70 FFFFFF84 FFFFFF80 FFFFFF80 FFFFFFC2 00 1B 10 04 14 00 FFFFFF82 78 10 03 18
   FFFFFF82 79 04 09 50 FFFFFF82 70 FFFFFF84 FFFFFF80 FFFFFF80 FFFFFFC2 00 1B 08 08 FFFFFF82
   35 FFFFFF82 70 FFFFFFC0 00 FFFFFF82 7B 10 06 FFFFFF81 0C FFFFFF82 7C FFFFFF82 7E 09
   03 FFFFFF82 7D 04 02 08 49 74 65 72 61 62 6C 65 10 07
   1D FFFFFF81 43 FFFFFF82 75 FFFFFF82 78 28 06 FFFFFF82 70 FFFFFF81 6B FFFFFF82 6E 08
   08 FFFFFF83 01 FFFFFF82 0C FFFFFF84 00 FFFFFF83 02 01 05 6C 65 66 74 73
   15 06 FFFFFF83 03 FFFFFF83 06 FFFFFF83 0E 14 04 FFFFFF83 04 FFFFFF83 07 10 04
   14 00 FFFFFF83 05 10 03 18 FFFFFF83 06 04 09 1A FFFFFF83 00 FFFFFF84 FFFFFF80
   FFFFFF80 FFFFFFC2 00 1B 08 08 FFFFFF83 08 FFFFFF83 00 FFFFFFC0 00 FFFFFF83 09 01 02
   65 73 10 06 FFFFFF81 0C FFFFFF82 7C FFFFFF83 0A 10 07 1D FFFFFF83 0B FFFFFF83
   05 FFFFFF83 0D 09 03 FFFFFF83 0C 06 02 06 45 69 74 68 65 72
   10 03 18 FFFFFF83 0E 04 09 50 FFFFFF83 00 FFFFFF84 FFFFFF80 FFFFFF80 FFFFFFC2 00 1B
   28 06 FFFFFF83 00 FFFFFF81 6B FFFFFF83 10 21 02 FFFFFF83 11 01 1A 75 73
   65 20 60 45 69 74 68 65 72 2E 6C 65 66 74 73 27
   20 69 6E 73 74 65 61 64 08 08 FFFFFF83 13 FFFFFF82 0C FFFFFF84 00
   FFFFFF83 14 01 06 72 69 67 68 74 73 15 06 FFFFFF83 15 FFFFFF83 1D
   FFFFFF83 18 14 04 FFFFFF83 16 FFFFFF83 19 10 04 14 00 FFFFFF83 17 10 03
   18 FFFFFF83 18 04 09 50 FFFFFF83 12 FFFFFF84 FFFFFF80 FFFFFF80 FFFFFFC2 00 1B 08 08
   FFFFFF83 08 FFFFFF83 12 FFFFFFC0 00 FFFFFF83 1A 10 06 FFFFFF81 0C FFFFFF82 7C FFFFFF83 1B
   10 07 1D FFFFFF83 0B FFFFFF83 1C FFFFFF83 17 10 03 18 FFFFFF83 1D 04 09
   1A FFFFFF83 12 FFFFFF84 FFFFFF80 FFFFFF80 FFFFFFC2 00 1B 28 06 FFFFFF83 12 FFFFFF81 6B FFFFFF83
   1F 21 02 FFFFFF83 20 01 1B 75 73 65 20 60 45 69 74 68
   65 72 2E 72 69 67 68 74 73 27 20 69 6E 73 74 65
   61 64 08 08 FFFFFF83 22 FFFFFF82 0C FFFFFF84 00 FFFFFF83 23 01 08 73 65
   70 61 72 61 74 65 15 06 FFFFFF83 24 FFFFFF83 28 FFFFFF83 2B 14 04
   FFFFFF83 25 FFFFFF83 2C 10 07 1D FFFFFF81 43 FFFFFF83 26 FFFFFF83 29 10 04 14
   00 FFFFFF83 27 10 03 18 FFFFFF83 28 04 09 1A FFFFFF83 21 FFFFFF84 FFFFFF80 FFFFFF80
   FFFFFFC2 00 1B 10 04 14 00 FFFFFF83 2A 10 03 18 FFFFFF83 2B 04 09
   50 FFFFFF83 21 FFFFFF84 FFFFFF80 FFFFFF80 FFFFFFC2 00 1B 08 08 FFFFFF83 08 FFFFFF83 21 FFFFFFC0
   00 FFFFFF83 2D 10 06 FFFFFF81 0C FFFFFF82 7C FFFFFF83 2E 10 07 1D FFFFFF83 0B
   FFFFFF83 27 FFFFFF83 2A 28 06 FFFFFF83 21 FFFFFF81 6B FFFFFF83 30 21 02 FFFFFF83 31
   01 1D 75 73 65 20 60 45 69 74 68 65 72 2E 73 65
   70 61 72 61 74 65 27 20 69 6E 73 74 65 61 64 08
   08 FFFFFF83 33 FFFFFF82 0C FFFFFF84 00 FFFFFF83 34 01 0C 66 72 6F 6D 49
   74 65 72 61 74 6F 72 15 04 FFFFFF83 35 FFFFFF83 38 14 04 FFFFFF83
   36 FFFFFF83 39 10 04 14 00 FFFFFF83 37 10 03 18 FFFFFF83 38 04 09
   1A FFFFFF83 32 FFFFFF84 FFFFFF80 FFFFFF80 FFFFFFC2 00 1B 08 08 FFFFFF83 3A FFFFFF83 32 FFFFFFC0
   00 FFFFFF83 3B 01 02 69 74 10 06 FFFFFF81 1B FFFFFF81 23 FFFFFF83 37 28
   06 FFFFFF83 32 FFFFFF81 6B FFFFFF83 3D 21 02 FFFFFF83 3E 01 17 75 73 65
   20 60 69 74 2E 74 6F 4C 69 73 74 27 20 69 6E 73
   74 65 61 64 08 08 FFFFFF83 40 FFFFFF82 0C FFFFFF84 00 FFFFFF83 41 01 09
   66 72 6F 6D 41 72 72 61 79 15 04 FFFFFF83 42 FFFFFF83 45 14
   04 FFFFFF83 43 FFFFFF83 46 10 04 14 00 FFFFFF83 44 10 03 18 FFFFFF83 45
   04 09 1A FFFFFF83 3F FFFFFF84 FFFFFF80 FFFFFF80 FFFFFFC2 00 1B 08 08 FFFFFF83 47 FFFFFF83
   3F FFFFFFC0 00 FFFFFF83 48 01 03 61 72 72 10 05 1D FFFFFF83 49 FFFFFF83
   44 09 03 FFFFFF83 4A 06 02 05 41 72 72 61 79 28 06 FFFFFF83
   3F FFFFFF81 6B FFFFFF83 4C 21 02 FFFFFF83 4D 01 1A 75 73 65 20 60
   61 72 72 61 79 2E 74 6F 4C 69 73 74 27 20 69 6E
   73 74 65 61 64 08 08 FFFFFF83 40 FFFFFF82 0C FFFFFF84 00 FFFFFF83 4F 15
   04 FFFFFF83 50 FFFFFF83 53 14 08 FFFFFF83 51 FFFFFF83 54 FFFFFF83 56 FFFFFF83 57 10
   04 14 00 FFFFFF83 52 10 03 18 FFFFFF83 53 04 09 1A FFFFFF83 4E FFFFFF84
   FFFFFF80 FFFFFF80 FFFFFFC2 00 1B 08 08 FFFFFF83 47 FFFFFF83 4E FFFFFFC0 00 FFFFFF83 55 10
   05 1D FFFFFF83 49 FFFFFF83 52 08 08 FFFFFF81 38 FFFFFF83 4E FFFFFFC0 00 FFFFFF81 2D
   08 08 FFFFFF83 58 FFFFFF83 4E FFFFFFC0 00 FFFFFF81 2D 01 03 6C 65 6E 28
   06 FFFFFF83 4E FFFFFF81 6B FFFFFF83 5A 21 02 FFFFFF83 5B 01 2B 75 73 65
   20 60 61 72 72 61 79 2E 76 69 65 77 28 73 74 61
   72 74 2C 20 65 6E 64 29 2E 74 6F 4C 69 73 74 27
   20 69 6E 73 74 65 61 64 08 08 FFFFFF83 5D FFFFFF82 0C FFFFFF84 00
   FFFFFF83 5E 01 0A 66 72 6F 6D 53 74 72 69 6E 67 14 06
   FFFFFF83 5F FFFFFF83 66 FFFFFF83 68 10 04 14 00 FFFFFF83 60 10 04 FFFFFF83 61
   FFFFFF83 64 0E 03 1D FFFFFF83 62 09 03 FFFFFF83 63 06 01 06 50 72
   65 64 65 66 09 04 FFFFFF81 5B FFFFFF83 65 0A 03 FFFFFF83 63 06 08
   08 FFFFFF83 67 FFFFFF83 5C FFFFFFC0 00 FFFFFF83 60 01 03 73 74 72 08 08
   FFFFFF83 69 FFFFFF83 5C FFFFFFC0 00 FFFFFF83 6A 01 09 73 65 70 61 72 61
   74 6F 72 10 03 1D FFFFFF83 6B 09 03 FFFFFF83 6C 06 02 04 43
   68 61 72 28 06 FFFFFF83 5C FFFFFF81 6B FFFFFF83 6E 21 02 FFFFFF83 6F 01
   29 75 73 65 20 60 73 74 72 2E 73 70 6C 69 74 28
   73 65 70 61 72 61 74 6F 72 29 2E 74 6F 4C 69 73
   74 27 20 69 6E 73 74 65 61 64 08 08 FFFFFF83 5D FFFFFF82 0C
   FFFFFF84 00 FFFFFF83 71 14 04 FFFFFF83 72 FFFFFF83 73 10 04 14 00 FFFFFF83 6A
   08 08 FFFFFF83 67 FFFFFF83 70 FFFFFFC0 00 FFFFFF83 60 28 06 FFFFFF83 70 FFFFFF81 6B
   FFFFFF83 75 21 02 FFFFFF83 76 01 18 75 73 65 20 60 73 74 72
   2E 74 6F 4C 69 73 74 27 20 69 6E 73 74 65 61 64
   08 08 FFFFFF83 78 FFFFFF82 0C FFFFFF84 00 FFFFFF83 79 01 08 74 6F 53 74
   72 69 6E 67 14 04 FFFFFF83 60 FFFFFF83 7A 08 08 FFFFFF82 35 FFFFFF83 77
   FFFFFFC0 00 FFFFFF83 72 28 06 FFFFFF83 77 FFFFFF81 6B FFFFFF83 7C 21 02 FFFFFF83 7D
   01 19 75 73 65 20 60 78 73 2E 6D 6B 53 74 72 69
   6E 67 27 20 69 6E 73 74 65 61 64 08 07 72 FFFFFF82 0C
   FFFFFF84 00 FFFFFF83 7F 15 04 FFFFFF84 00 FFFFFF84 04 14 04 FFFFFF84 01 FFFFFF84 0B
   14 04 FFFFFF84 02 FFFFFF84 09 10 04 14 00 FFFFFF84 03 10 03 18 FFFFFF84
   04 04 0A 1A FFFFFF83 7E FFFFFF84 FFFFFF80 FFFFFF80 FFFFFFC2 00 FFFFFF84 05 11 03 1C
   FFFFFF84 06 10 03 1D FFFFFF84 07 09 03 FFFFFF84 08 06 02 06 41 6E
   79 52 65 66 08 07 6D FFFFFF83 7E FFFFFFC0 00 FFFFFF84 0A 10 06 1D
   6F FFFFFF84 03 FFFFFF84 03 08 08 FFFFFF82 35 FFFFFF83 7E FFFFFFC0 00 FFFFFF84 02 28
   06 FFFFFF83 7E FFFFFF81 6B FFFFFF84 0D 21 02 FFFFFF84 0E 01 1F 75 73 65
   20 60 78 73 2E 6D 61 70 43 6F 6E 73 65 72 76 65
   28 66 29 27 20 69 6E 73 74 65 61 64 08 08 FFFFFF84 10
   FFFFFF82 0C FFFFFF84 00 FFFFFF84 11 01 04 6D 61 70 32 15 08 FFFFFF84 12
   FFFFFF84 1B FFFFFF84 1D FFFFFF84 16 14 06 FFFFFF84 13 FFFFFF84 1E FFFFFF84 20 14 04
   FFFFFF84 14 FFFFFF84 18 10 04 14 00 FFFFFF84 15 10 03 18 FFFFFF84 16 04
   0A FFFFFF84 17 FFFFFF84 0F FFFFFF84 FFFFFF80 FFFFFF80 FFFFFFC2 00 1B 02 01 43 08 07
   6D FFFFFF84 0F FFFFFFC0 00 FFFFFF84 19 10 09 1D FFFFFF81 7F FFFFFF84 1A FFFFFF84 1C
   FFFFFF84 15 10 03 18 FFFFFF84 1B 04 09 1A FFFFFF84 0F FFFFFF84 FFFFFF80 FFFFFF80 FFFFFFC2
   00 1B 10 03 18 FFFFFF84 1D 04 09 50 FFFFFF84 0F FFFFFF84 FFFFFF80 FFFFFF80 FFFFFFC2
   00 1B 08 08 FFFFFF82 35 FFFFFF84 0F FFFFFFC0 00 FFFFFF84 1F 10 04 14 00
   FFFFFF84 1A 08 08 FFFFFF84 21 FFFFFF84 0F FFFFFFC0 00 FFFFFF84 22 01 02 79 73
   10 04 14 00 FFFFFF84 1C 28 06 FFFFFF84 0F FFFFFF81 6B FFFFFF84 24 21 02
   FFFFFF84 25 01 1D 75 73 65 20 60 28 78 73 2C 20 79 73
   29 2E 6D 61 70 28 66 29 27 20 69 6E 73 74 65 61
   64 08 08 FFFFFF84 27 FFFFFF82 0C FFFFFF84 00 FFFFFF84 28 01 04 6D 61 70
   33 15 0A FFFFFF84 29 FFFFFF84 34 FFFFFF84 36 FFFFFF84 38 FFFFFF84 2D 14 08 FFFFFF84
   2A FFFFFF84 39 FFFFFF84 3B FFFFFF84 3D 14 04 FFFFFF84 2B FFFFFF84 2F 10 04 14
   00 FFFFFF84 2C 10 03 18 FFFFFF84 2D 04 0A FFFFFF84 2E FFFFFF84 26 FFFFFF84 FFFFFF80
   FFFFFF80 FFFFFFC2 00 1B 02 01 44 08 07 6D FFFFFF84 26 FFFFFFC0 00 FFFFFF84 30
   10 0B 1D FFFFFF84 31 FFFFFF84 33 FFFFFF84 35 FFFFFF84 37 FFFFFF84 2C 09 03 FFFFFF84
   32 06 02 09 46 75 6E 63 74 69 6F 6E 33 10 03 18
   FFFFFF84 34 04 09 1A FFFFFF84 26 FFFFFF84 FFFFFF80 FFFFFF80 FFFFFFC2 00 1B 10 03 18
   FFFFFF84 36 04 09 50 FFFFFF84 26 FFFFFF84 FFFFFF80 FFFFFF80 FFFFFFC2 00 1B 10 03 18
   FFFFFF84 38 04 0A FFFFFF84 17 FFFFFF84 26 FFFFFF84 FFFFFF80 FFFFFF80 FFFFFFC2 00 1B 08 08
   FFFFFF82 35 FFFFFF84 26 FFFFFFC0 00 FFFFFF84 3A 10 04 14 00 FFFFFF84 33 08 08
   FFFFFF84 21 FFFFFF84 26 FFFFFFC0 00 FFFFFF84 3C 10 04 14 00 FFFFFF84 35 08 08
   FFFFFF84 3E FFFFFF84 26 FFFFFFC0 00 FFFFFF84 3F 01 02 7A 73 10 04 14 00
   FFFFFF84 37 28 06 FFFFFF84 26 FFFFFF81 6B FFFFFF84 41 21 02 FFFFFF84 42 01 21
   75 73 65 20 60 28 78 73 2C 20 79 73 2C 20 7A 73
   29 2E 6D 61 70 28 66 29 27 20 69 6E 73 74 65 61
   64 08 08 FFFFFF84 44 FFFFFF82 0C FFFFFF84 00 FFFFFF84 45 01 07 66 6F 72
   61 6C 6C 32 15 06 FFFFFF84 46 FFFFFF84 4B FFFFFF84 4D 14 06 FFFFFF84 47
   FFFFFF84 4E FFFFFF84 50 14 03 40 FFFFFF84 48 08 07 6D FFFFFF84 43 FFFFFFC0 00
   FFFFFF84 49 10 08 1D FFFFFF81 7F FFFFFF84 4A FFFFFF84 4C 40 10 03 18 FFFFFF84
   4B 04 09 1A FFFFFF84 43 FFFFFF84 FFFFFF80 FFFFFF80 FFFFFFC2 00 1B 10 03 18 FFFFFF84
   4D 04 09 50 FFFFFF84 43 FFFFFF84 FFFFFF80 FFFFFF80 FFFFFFC2 00 1B 08 08 FFFFFF82 35
   FFFFFF84 43 FFFFFFC0 00 FFFFFF84 4F 10 04 14 00 FFFFFF84 4A 08 08 FFFFFF84 21
   FFFFFF84 43 FFFFFFC0 00 FFFFFF84 51 10 04 14 00 FFFFFF84 4C 28 06 FFFFFF84 43
   FFFFFF81 6B FFFFFF84 53 21 02 FFFFFF84 54 01 20 75 73 65 20 60 28
   78 73 2C 20 79 73 29 2E 66 6F 72 61 6C 6C 28 66
   29 27 20 69 6E 73 74 65 61 64 08 08 FFFFFF84 56 FFFFFF82 0C
   FFFFFF84 00 FFFFFF84 57 01 07 65 78 69 73 74 73 32 15 06 FFFFFF84
   58 FFFFFF84 5D FFFFFF84 5F 14 06 FFFFFF84 59 FFFFFF84 60 FFFFFF84 62 14 03 40
   FFFFFF84 5A 08 07 6D FFFFFF84 55 FFFFFFC0 00 FFFFFF84 5B 10 08 1D FFFFFF81 7F
   FFFFFF84 5C FFFFFF84 5E 40 10 03 18 FFFFFF84 5D 04 09 1A FFFFFF84 55 FFFFFF84
   FFFFFF80 FFFFFF80 FFFFFFC2 00 1B 10 03 18 FFFFFF84 5F 04 09 50 FFFFFF84 55 FFFFFF84
   FFFFFF80 FFFFFF80 FFFFFFC2 00 1B 08 08 FFFFFF82 35 FFFFFF84 55 FFFFFFC0 00 FFFFFF84 61 10
   04 14 00 FFFFFF84 5C 08 08 FFFFFF84 21 FFFFFF84 55 FFFFFFC0 00 FFFFFF84 63 10
   04 14 00 FFFFFF84 5E 28 06 FFFFFF84 55 FFFFFF81 6B FFFFFF84 65 21 02 FFFFFF84
   66 01 20 75 73 65 20 60 28 78 73 2C 20 79 73 29
   2E 65 78 69 73 74 73 28 66 29 27 20 69 6E 73 74
   65 61 64 08 08 FFFFFF84 68 FFFFFF82 0C FFFFFF84 00 FFFFFF84 69 01 09 74
   72 61 6E 73 70 6F 73 65 15 04 FFFFFF84 6A FFFFFF84 6E 14 04
   FFFFFF84 6B FFFFFF84 6F 10 04 14 00 FFFFFF84 6C 10 04 14 00 FFFFFF84 6D
   10 03 18 FFFFFF84 6E 04 09 1A FFFFFF84 67 FFFFFF84 FFFFFF80 FFFFFF80 FFFFFFC2 00 1B
   08 08 FFFFFF82 5A FFFFFF84 67 FFFFFFC0 00 FFFFFF84 6B 28 06 FFFFFF84 67 FFFFFF81 6B
   FFFFFF84 71 21 02 FFFFFF84 72 01 1C 75 73 65 20 70 60 78 73
   73 2E 74 72 61 6E 73 70 6F 73 65 27 20 69 6E 73
   74 65 61 64 
  InnerClass: 
   public final #894= #360 of #893; //Cons=class scala/collection/immutable/Stream$Cons of class scala/collection/immutable/Stream
   public final #897= #896 of #131; //$anonfun$unzip$1=class scala/collection/immutable/List$$anonfun$unzip$1 of class scala/collection/immutable/List
   public final #900= #899 of #131; //$anonfun$lefts$1=class scala/collection/immutable/List$$anonfun$lefts$1 of class scala/collection/immutable/List
   public final #903= #902 of #131; //$anonfun$rights$1=class scala/collection/immutable/List$$anonfun$rights$1 of class scala/collection/immutable/List
   public final #906= #905 of #131; //$anonfun$flatten$1=class scala/collection/immutable/List$$anonfun$flatten$1 of class scala/collection/immutable/List
   public final #907= #362 of #131; //$anonfun$toStream$1=class scala/collection/immutable/List$$anonfun$toStream$1 of class scala/collection/immutable/List
   public final #910= #909 of #131; //$anonfun$separate$1=class scala/collection/immutable/List$$anonfun$separate$1 of class scala/collection/immutable/List
   public final #913= #912 of #131; //$anonfun$transpose$1=class scala/collection/immutable/List$$anonfun$transpose$1 of class scala/collection/immutable/List
   public final #916= #915 of #131; //$anonfun$transpose$2=class scala/collection/immutable/List$$anonfun$transpose$2 of class scala/collection/immutable/List
  minor version: 0
  major version: 49
  Constant pool:
const #1 = Asciz	SourceFile;
const #2 = Asciz	List.scala;
const #3 = Asciz	<init>;
const #4 = Asciz	()V;
const #5 = Asciz	Code;
const #6 = Asciz	LineNumberTable;
const #7 = Asciz	java/lang/Object;
const #8 = class	#7;	//  java/lang/Object
const #9 = NameAndType	#3:#4;//  "<init>":()V
const #10 = Method	#8.#9;	//  java/lang/Object."<init>":()V
const #11 = Asciz	scala/collection/generic/TraversableTemplate$class;
const #12 = class	#11;	//  scala/collection/generic/TraversableTemplate$class
const #13 = Asciz	$init$;
const #14 = Asciz	(Lscala/collection/generic/TraversableTemplate;)V;
const #15 = NameAndType	#13:#14;//  $init$:(Lscala/collection/generic/TraversableTemplate;)V
const #16 = Method	#12.#15;	//  scala/collection/generic/TraversableTemplate$class.$init$:(Lscala/collection/generic/TraversableTemplate;)V
const #17 = Asciz	scala/collection/generic/TraversableClass$class;
const #18 = class	#17;	//  scala/collection/generic/TraversableClass$class
const #19 = Asciz	(Lscala/collection/generic/TraversableClass;)V;
const #20 = NameAndType	#13:#19;//  $init$:(Lscala/collection/generic/TraversableClass;)V
const #21 = Method	#18.#20;	//  scala/collection/generic/TraversableClass$class.$init$:(Lscala/collection/generic/TraversableClass;)V
const #22 = Asciz	scala/collection/Traversable$class;
const #23 = class	#22;	//  scala/collection/Traversable$class
const #24 = Asciz	(Lscala/collection/Traversable;)V;
const #25 = NameAndType	#13:#24;//  $init$:(Lscala/collection/Traversable;)V
const #26 = Method	#23.#25;	//  scala/collection/Traversable$class.$init$:(Lscala/collection/Traversable;)V
const #27 = Asciz	scala/collection/immutable/Traversable$class;
const #28 = class	#27;	//  scala/collection/immutable/Traversable$class
const #29 = Asciz	(Lscala/collection/immutable/Traversable;)V;
const #30 = NameAndType	#13:#29;//  $init$:(Lscala/collection/immutable/Traversable;)V
const #31 = Method	#28.#30;	//  scala/collection/immutable/Traversable$class.$init$:(Lscala/collection/immutable/Traversable;)V
const #32 = Asciz	scala/collection/generic/IterableTemplate$class;
const #33 = class	#32;	//  scala/collection/generic/IterableTemplate$class
const #34 = Asciz	(Lscala/collection/generic/IterableTemplate;)V;
const #35 = NameAndType	#13:#34;//  $init$:(Lscala/collection/generic/IterableTemplate;)V
const #36 = Method	#33.#35;	//  scala/collection/generic/IterableTemplate$class.$init$:(Lscala/collection/generic/IterableTemplate;)V
const #37 = Asciz	scala/collection/Iterable$class;
const #38 = class	#37;	//  scala/collection/Iterable$class
const #39 = Asciz	(Lscala/collection/Iterable;)V;
const #40 = NameAndType	#13:#39;//  $init$:(Lscala/collection/Iterable;)V
const #41 = Method	#38.#40;	//  scala/collection/Iterable$class.$init$:(Lscala/collection/Iterable;)V
const #42 = Asciz	scala/collection/immutable/Iterable$class;
const #43 = class	#42;	//  scala/collection/immutable/Iterable$class
const #44 = Asciz	(Lscala/collection/immutable/Iterable;)V;
const #45 = NameAndType	#13:#44;//  $init$:(Lscala/collection/immutable/Iterable;)V
const #46 = Method	#43.#45;	//  scala/collection/immutable/Iterable$class.$init$:(Lscala/collection/immutable/Iterable;)V
const #47 = Asciz	scala/Function1$class;
const #48 = class	#47;	//  scala/Function1$class
const #49 = Asciz	(Lscala/Function1;)V;
const #50 = NameAndType	#13:#49;//  $init$:(Lscala/Function1;)V
const #51 = Method	#48.#50;	//  scala/Function1$class.$init$:(Lscala/Function1;)V
const #52 = Asciz	scala/PartialFunction$class;
const #53 = class	#52;	//  scala/PartialFunction$class
const #54 = Asciz	(Lscala/PartialFunction;)V;
const #55 = NameAndType	#13:#54;//  $init$:(Lscala/PartialFunction;)V
const #56 = Method	#53.#55;	//  scala/PartialFunction$class.$init$:(Lscala/PartialFunction;)V
const #57 = Asciz	scala/collection/generic/SequenceTemplate$class;
const #58 = class	#57;	//  scala/collection/generic/SequenceTemplate$class
const #59 = Asciz	(Lscala/collection/generic/SequenceTemplate;)V;
const #60 = NameAndType	#13:#59;//  $init$:(Lscala/collection/generic/SequenceTemplate;)V
const #61 = Method	#58.#60;	//  scala/collection/generic/SequenceTemplate$class.$init$:(Lscala/collection/generic/SequenceTemplate;)V
const #62 = Asciz	scala/collection/Sequence$class;
const #63 = class	#62;	//  scala/collection/Sequence$class
const #64 = Asciz	(Lscala/collection/Sequence;)V;
const #65 = NameAndType	#13:#64;//  $init$:(Lscala/collection/Sequence;)V
const #66 = Method	#63.#65;	//  scala/collection/Sequence$class.$init$:(Lscala/collection/Sequence;)V
const #67 = Asciz	scala/collection/immutable/Sequence$class;
const #68 = class	#67;	//  scala/collection/immutable/Sequence$class
const #69 = Asciz	(Lscala/collection/immutable/Sequence;)V;
const #70 = NameAndType	#13:#69;//  $init$:(Lscala/collection/immutable/Sequence;)V
const #71 = Method	#68.#70;	//  scala/collection/immutable/Sequence$class.$init$:(Lscala/collection/immutable/Sequence;)V
const #72 = Asciz	scala/collection/generic/LinearSequenceTemplate$class;
const #73 = class	#72;	//  scala/collection/generic/LinearSequenceTemplate$class
const #74 = Asciz	(Lscala/collection/generic/LinearSequenceTemplate;)V;
const #75 = NameAndType	#13:#74;//  $init$:(Lscala/collection/generic/LinearSequenceTemplate;)V
const #76 = Method	#73.#75;	//  scala/collection/generic/LinearSequenceTemplate$class.$init$:(Lscala/collection/generic/LinearSequenceTemplate;)V
const #77 = Asciz	scala/collection/LinearSequence$class;
const #78 = class	#77;	//  scala/collection/LinearSequence$class
const #79 = Asciz	(Lscala/collection/LinearSequence;)V;
const #80 = NameAndType	#13:#79;//  $init$:(Lscala/collection/LinearSequence;)V
const #81 = Method	#78.#80;	//  scala/collection/LinearSequence$class.$init$:(Lscala/collection/LinearSequence;)V
const #82 = Asciz	scala/collection/immutable/LinearSequence$class;
const #83 = class	#82;	//  scala/collection/immutable/LinearSequence$class
const #84 = Asciz	(Lscala/collection/immutable/LinearSequence;)V;
const #85 = NameAndType	#13:#84;//  $init$:(Lscala/collection/immutable/LinearSequence;)V
const #86 = Method	#83.#85;	//  scala/collection/immutable/LinearSequence$class.$init$:(Lscala/collection/immutable/LinearSequence;)V
const #87 = Asciz	scala/Product$class;
const #88 = class	#87;	//  scala/Product$class
const #89 = Asciz	(Lscala/Product;)V;
const #90 = NameAndType	#13:#89;//  $init$:(Lscala/Product;)V
const #91 = Method	#88.#90;	//  scala/Product$class.$init$:(Lscala/Product;)V
const #92 = Asciz	Signature;
const #93 = Asciz	ms$1;
const #94 = Asciz	(Lscala/collection/immutable/List;Lscala/Function2;)Lscala/collection/immutable/List;;
const #95 = Asciz	scala/collection/immutable/Nil$;
const #96 = class	#95;	//  scala/collection/immutable/Nil$
const #97 = Asciz	MODULE$;
const #98 = Asciz	Lscala/collection/immutable/Nil$;;
const #99 = NameAndType	#97:#98;//  MODULE$:Lscala/collection/immutable/Nil$;
const #100 = Field	#96.#99;	//  scala/collection/immutable/Nil$.MODULE$:Lscala/collection/immutable/Nil$;
const #101 = Asciz	equals;
const #102 = Asciz	(Ljava/lang/Object;)Z;
const #103 = NameAndType	#101:#102;//  equals:(Ljava/lang/Object;)Z
const #104 = Method	#8.#103;	//  java/lang/Object.equals:(Ljava/lang/Object;)Z
const #105 = Asciz	scala/collection/immutable/$colon$colon;
const #106 = class	#105;	//  scala/collection/immutable/$colon$colon
const #107 = Asciz	hd$1;
const #108 = Asciz	()Ljava/lang/Object;;
const #109 = NameAndType	#107:#108;//  hd$1:()Ljava/lang/Object;
const #110 = Method	#106.#109;	//  scala/collection/immutable/$colon$colon.hd$1:()Ljava/lang/Object;
const #111 = Asciz	tl$1;
const #112 = Asciz	()Lscala/collection/immutable/List;;
const #113 = NameAndType	#111:#112;//  tl$1:()Lscala/collection/immutable/List;
const #114 = Method	#106.#113;	//  scala/collection/immutable/$colon$colon.tl$1:()Lscala/collection/immutable/List;
const #115 = Asciz	scala/Function2;
const #116 = class	#115;	//  scala/Function2
const #117 = Asciz	apply;
const #118 = Asciz	(Ljava/lang/Object;Ljava/lang/Object;)Ljava/lang/Object;;
const #119 = NameAndType	#117:#118;//  apply:(Ljava/lang/Object;Ljava/lang/Object;)Ljava/lang/Object;
const #120 = InterfaceMethod	#116.#119;	//  scala/Function2.apply:(Ljava/lang/Object;Ljava/lang/Object;)Ljava/lang/Object;
const #121 = Asciz	scala/runtime/BoxesRunTime;
const #122 = class	#121;	//  scala/runtime/BoxesRunTime
const #123 = Asciz	unboxToBoolean;
const #124 = NameAndType	#123:#102;//  unboxToBoolean:(Ljava/lang/Object;)Z
const #125 = Method	#122.#124;	//  scala/runtime/BoxesRunTime.unboxToBoolean:(Ljava/lang/Object;)Z
const #126 = Asciz	$colon$colon;
const #127 = Asciz	(Ljava/lang/Object;)Lscala/collection/immutable/List;;
const #128 = NameAndType	#126:#127;//  $colon$colon:(Ljava/lang/Object;)Lscala/collection/immutable/List;
const #129 = Method	#96.#128;	//  scala/collection/immutable/Nil$.$colon$colon:(Ljava/lang/Object;)Lscala/collection/immutable/List;
const #130 = Asciz	scala/collection/immutable/List;
const #131 = class	#130;	//  scala/collection/immutable/List
const #132 = Method	#131.#128;	//  scala/collection/immutable/List.$colon$colon:(Ljava/lang/Object;)Lscala/collection/immutable/List;
const #133 = Asciz	split$1;
const #134 = Asciz	(Lscala/collection/immutable/List;)Lscala/Tuple2;;
const #135 = NameAndType	#133:#134;//  split$1:(Lscala/collection/immutable/List;)Lscala/Tuple2;
const #136 = Method	#131.#135;	//  scala/collection/immutable/List.split$1:(Lscala/collection/immutable/List;)Lscala/Tuple2;
const #137 = Asciz	scala/Tuple2;
const #138 = class	#137;	//  scala/Tuple2
const #139 = Asciz	_1;
const #140 = NameAndType	#139:#108;//  _1:()Ljava/lang/Object;
const #141 = Method	#138.#140;	//  scala/Tuple2._1:()Ljava/lang/Object;
const #142 = Asciz	_2;
const #143 = NameAndType	#142:#108;//  _2:()Ljava/lang/Object;
const #144 = Method	#138.#143;	//  scala/Tuple2._2:()Ljava/lang/Object;
const #145 = Asciz	(Ljava/lang/Object;Ljava/lang/Object;)V;
const #146 = NameAndType	#3:#145;//  "<init>":(Ljava/lang/Object;Ljava/lang/Object;)V
const #147 = Method	#138.#146;	//  scala/Tuple2."<init>":(Ljava/lang/Object;Ljava/lang/Object;)V
const #148 = NameAndType	#93:#94;//  ms$1:(Lscala/collection/immutable/List;Lscala/Function2;)Lscala/collection/immutable/List;
const #149 = Method	#131.#148;	//  scala/collection/immutable/List.ms$1:(Lscala/collection/immutable/List;Lscala/Function2;)Lscala/collection/immutable/List;
const #150 = Asciz	merge$1;
const #151 = Asciz	(Lscala/collection/immutable/List;Lscala/collection/immutable/List;Lscala/Function2;)Lscala/collection/immutable/List;;
const #152 = NameAndType	#150:#151;//  merge$1:(Lscala/collection/immutable/List;Lscala/collection/immutable/List;Lscala/Function2;)Lscala/collection/immutable/List;
const #153 = Method	#131.#152;	//  scala/collection/immutable/List.merge$1:(Lscala/collection/immutable/List;Lscala/collection/immutable/List;Lscala/Function2;)Lscala/collection/immutable/List;
const #154 = Asciz	scala/MatchError;
const #155 = class	#154;	//  scala/MatchError
const #156 = Asciz	toString;
const #157 = Asciz	()Ljava/lang/String;;
const #158 = NameAndType	#156:#157;//  toString:()Ljava/lang/String;
const #159 = Method	#138.#158;	//  scala/Tuple2.toString:()Ljava/lang/String;
const #160 = Asciz	(Ljava/lang/String;)V;
const #161 = NameAndType	#3:#160;//  "<init>":(Ljava/lang/String;)V
const #162 = Method	#155.#161;	//  scala/MatchError."<init>":(Ljava/lang/String;)V
const #163 = Asciz	this;
const #164 = Asciz	Lscala/collection/immutable/List;;
const #165 = Asciz	lst;
const #166 = Asciz	temp14;
const #167 = Asciz	temp16;
const #168 = Asciz	Lscala/collection/immutable/$colon$colon;;
const #169 = Asciz	temp17;
const #170 = Asciz	Ljava/lang/Object;;
const #171 = Asciz	temp18;
const #172 = Asciz	temp20;
const #173 = Asciz	temp21;
const #174 = Asciz	temp22;
const #175 = Asciz	y;
const #176 = Asciz	x;
const #177 = Asciz	temp11;
const #178 = Asciz	Lscala/Tuple2;;
const #179 = Asciz	temp12;
const #180 = Asciz	temp13;
const #181 = Asciz	l2;
const #182 = Asciz	l1;
const #183 = Asciz	l1s;
const #184 = Asciz	l2s;
const #185 = Asciz	LocalVariableTable;
const #186 = Asciz	scala/collection/mutable/ListBuffer;
const #187 = class	#186;	//  scala/collection/mutable/ListBuffer
const #188 = Method	#187.#9;	//  scala/collection/mutable/ListBuffer."<init>":()V
const #189 = Asciz	scala/collection/generic/IterableTemplate;
const #190 = class	#189;	//  scala/collection/generic/IterableTemplate
const #191 = Asciz	isEmpty;
const #192 = Asciz	()Z;
const #193 = NameAndType	#191:#192;//  isEmpty:()Z
const #194 = InterfaceMethod	#190.#193;	//  scala/collection/generic/IterableTemplate.isEmpty:()Z
const #195 = Asciz	toList;
const #196 = NameAndType	#195:#112;//  toList:()Lscala/collection/immutable/List;
const #197 = Method	#187.#196;	//  scala/collection/mutable/ListBuffer.toList:()Lscala/collection/immutable/List;
const #198 = Asciz	head;
const #199 = NameAndType	#198:#108;//  head:()Ljava/lang/Object;
const #200 = InterfaceMethod	#190.#199;	//  scala/collection/generic/IterableTemplate.head:()Ljava/lang/Object;
const #201 = Asciz	$plus$eq;
const #202 = Asciz	(Ljava/lang/Object;)Lscala/collection/mutable/ListBuffer;;
const #203 = NameAndType	#201:#202;//  $plus$eq:(Ljava/lang/Object;)Lscala/collection/mutable/ListBuffer;
const #204 = Method	#187.#203;	//  scala/collection/mutable/ListBuffer.$plus$eq:(Ljava/lang/Object;)Lscala/collection/mutable/ListBuffer;
const #205 = Asciz	scala/collection/generic/TraversableTemplate;
const #206 = class	#205;	//  scala/collection/generic/TraversableTemplate
const #207 = Asciz	tail;
const #208 = Asciz	()Lscala/collection/generic/TraversableTemplate;;
const #209 = NameAndType	#207:#208;//  tail:()Lscala/collection/generic/TraversableTemplate;
const #210 = InterfaceMethod	#206.#209;	//  scala/collection/generic/TraversableTemplate.tail:()Lscala/collection/generic/TraversableTemplate;
const #211 = Asciz	res1;
const #212 = Asciz	Lscala/collection/mutable/ListBuffer;;
const #213 = Asciz	res2;
const #214 = Asciz	left;
const #215 = Asciz	scala/collection/generic/Growable;
const #216 = class	#215;	//  scala/collection/generic/Growable
const #217 = Asciz	$plus$plus$eq;
const #218 = Asciz	(Lscala/collection/Traversable;)Lscala/collection/generic/Growable;;
const #219 = NameAndType	#217:#218;//  $plus$plus$eq:(Lscala/collection/Traversable;)Lscala/collection/generic/Growable;
const #220 = InterfaceMethod	#216.#219;	//  scala/collection/generic/Growable.$plus$plus$eq:(Lscala/collection/Traversable;)Lscala/collection/generic/Growable;
const #221 = Asciz	res;
const #222 = Asciz	left1;
const #223 = Asciz	left2;
const #224 = Asciz	loop$3;
const #225 = Asciz	(Lscala/collection/immutable/List;Lscala/collection/immutable/List;)Lscala/collection/immutable/List;;
const #226 = Asciz	scala/collection/generic/SequenceTemplate;
const #227 = class	#226;	//  scala/collection/generic/SequenceTemplate
const #228 = InterfaceMethod	#227.#158;	//  scala/collection/generic/SequenceTemplate.toString:()Ljava/lang/String;
const #229 = Asciz	lead;
const #230 = Asciz	lag;
const #231 = Asciz	temp6;
const #232 = Asciz	temp8;
const #233 = Asciz	temp10;
const #234 = Asciz	loop$2;
const #235 = Asciz	(Lscala/collection/immutable/List;Lscala/Function1;)Lscala/collection/immutable/List;;
const #236 = Asciz	scala/Function1;
const #237 = class	#236;	//  scala/Function1
const #238 = Asciz	(Ljava/lang/Object;)Ljava/lang/Object;;
const #239 = NameAndType	#117:#238;//  apply:(Ljava/lang/Object;)Ljava/lang/Object;
const #240 = InterfaceMethod	#237.#239;	//  scala/Function1.apply:(Ljava/lang/Object;)Ljava/lang/Object;
const #241 = Asciz	(Ljava/lang/Object;Ljava/lang/Object;)Z;
const #242 = NameAndType	#101:#241;//  equals:(Ljava/lang/Object;Ljava/lang/Object;)Z
const #243 = Method	#122.#242;	//  scala/runtime/BoxesRunTime.equals:(Ljava/lang/Object;Ljava/lang/Object;)Z
const #244 = Asciz	mapConserve;
const #245 = Asciz	(Lscala/Function1;)Lscala/collection/immutable/List;;
const #246 = NameAndType	#244:#245;//  mapConserve:(Lscala/Function1;)Lscala/collection/immutable/List;
const #247 = Method	#131.#246;	//  scala/collection/immutable/List.mapConserve:(Lscala/Function1;)Lscala/collection/immutable/List;
const #248 = Asciz	prependToList;
const #249 = Asciz	(Lscala/collection/immutable/List;)Lscala/collection/immutable/List;;
const #250 = NameAndType	#248:#249;//  prependToList:(Lscala/collection/immutable/List;)Lscala/collection/immutable/List;
const #251 = Method	#187.#250;	//  scala/collection/mutable/ListBuffer.prependToList:(Lscala/collection/immutable/List;)Lscala/collection/immutable/List;
const #252 = Asciz	ys;
const #253 = Asciz	head0;
const #254 = Asciz	head1;
const #255 = Asciz	ys1;
const #256 = Asciz	b;
const #257 = Asciz	xc;
const #258 = Asciz	loop$1;
const #259 = Asciz	(Lscala/collection/immutable/List;Lscala/collection/immutable/List;Lscala/Function1;)Lscala/collection/immutable/List;;
const #260 = Asciz	l;
const #261 = Asciz	temp1;
const #262 = Asciz	temp3;
const #263 = Asciz	temp4;
const #264 = Asciz	temp5;
const #265 = Asciz	take;
const #266 = Asciz	(I)Lscala/collection/generic/LinearSequenceTemplate;;
const #267 = Asciz	(I)Lscala/collection/immutable/List;;
const #268 = NameAndType	#265:#267;//  take:(I)Lscala/collection/immutable/List;
const #269 = Method	#131.#268;	//  scala/collection/immutable/List.take:(I)Lscala/collection/immutable/List;
const #270 = Asciz	n;
const #271 = Asciz	I;
const #272 = Asciz	(I)Lscala/collection/generic/TraversableTemplate;;
const #273 = Asciz	drop;
const #274 = NameAndType	#273:#267;//  drop:(I)Lscala/collection/immutable/List;
const #275 = Method	#131.#274;	//  scala/collection/immutable/List.drop:(I)Lscala/collection/immutable/List;
const #276 = Asciz	slice;
const #277 = Asciz	(II)Lscala/collection/generic/TraversableTemplate;;
const #278 = Asciz	(II)Lscala/collection/immutable/List;;
const #279 = NameAndType	#276:#278;//  slice:(II)Lscala/collection/immutable/List;
const #280 = Method	#131.#279;	//  scala/collection/immutable/List.slice:(II)Lscala/collection/immutable/List;
const #281 = Asciz	from;
const #282 = Asciz	until;
const #283 = Asciz	takeRight;
const #284 = Asciz	(I)Lscala/collection/generic/IterableTemplate;;
const #285 = NameAndType	#283:#267;//  takeRight:(I)Lscala/collection/immutable/List;
const #286 = Method	#131.#285;	//  scala/collection/immutable/List.takeRight:(I)Lscala/collection/immutable/List;
const #287 = Asciz	takeWhile;
const #288 = Asciz	(Lscala/Function1;)Lscala/collection/generic/TraversableTemplate;;
const #289 = NameAndType	#287:#245;//  takeWhile:(Lscala/Function1;)Lscala/collection/immutable/List;
const #290 = Method	#131.#289;	//  scala/collection/immutable/List.takeWhile:(Lscala/Function1;)Lscala/collection/immutable/List;
const #291 = Asciz	p;
const #292 = Asciz	Lscala/Function1;;
const #293 = Asciz	dropWhile;
const #294 = NameAndType	#293:#245;//  dropWhile:(Lscala/Function1;)Lscala/collection/immutable/List;
const #295 = Method	#131.#294;	//  scala/collection/immutable/List.dropWhile:(Lscala/Function1;)Lscala/collection/immutable/List;
const #296 = Asciz	reverse;
const #297 = Asciz	()Lscala/collection/generic/IterableTemplate;;
const #298 = NameAndType	#296:#112;//  reverse:()Lscala/collection/immutable/List;
const #299 = Method	#131.#298;	//  scala/collection/immutable/List.reverse:()Lscala/collection/immutable/List;
const #300 = Asciz	unboxToInt;
const #301 = Asciz	(Ljava/lang/Object;)I;
const #302 = NameAndType	#300:#301;//  unboxToInt:(Ljava/lang/Object;)I
const #303 = Method	#122.#302;	//  scala/runtime/BoxesRunTime.unboxToInt:(Ljava/lang/Object;)I
const #304 = Asciz	scala/collection/generic/LinearSequenceTemplate;
const #305 = class	#304;	//  scala/collection/generic/LinearSequenceTemplate
const #306 = Asciz	(I)Ljava/lang/Object;;
const #307 = NameAndType	#117:#306;//  apply:(I)Ljava/lang/Object;
const #308 = InterfaceMethod	#305.#307;	//  scala/collection/generic/LinearSequenceTemplate.apply:(I)Ljava/lang/Object;
const #309 = Asciz	v1;
const #310 = Asciz	dropRight;
const #311 = NameAndType	#310:#266;//  dropRight:(I)Lscala/collection/generic/LinearSequenceTemplate;
const #312 = InterfaceMethod	#305.#311;	//  scala/collection/generic/LinearSequenceTemplate.dropRight:(I)Lscala/collection/generic/LinearSequenceTemplate;
const #313 = Asciz	isDefinedAt;
const #314 = Asciz	(I)Z;
const #315 = NameAndType	#313:#314;//  isDefinedAt:(I)Z
const #316 = InterfaceMethod	#305.#315;	//  scala/collection/generic/LinearSequenceTemplate.isDefinedAt:(I)Z
const #317 = Asciz	view;
const #318 = Asciz	(II)Lscala/collection/generic/IterableView;;
const #319 = Asciz	(II)Lscala/collection/generic/SequenceView;;
const #320 = NameAndType	#317:#319;//  view:(II)Lscala/collection/generic/SequenceView;
const #321 = InterfaceMethod	#227.#320;	//  scala/collection/generic/SequenceTemplate.view:(II)Lscala/collection/generic/SequenceView;
const #322 = Asciz	(II)Lscala/collection/generic/TraversableView;;
const #323 = Asciz	andThen;
const #324 = Asciz	(Lscala/Function1;)Lscala/Function1;;
const #325 = Asciz	scala/PartialFunction;
const #326 = class	#325;	//  scala/PartialFunction
const #327 = Asciz	(Lscala/Function1;)Lscala/PartialFunction;;
const #328 = NameAndType	#323:#327;//  andThen:(Lscala/Function1;)Lscala/PartialFunction;
const #329 = InterfaceMethod	#326.#328;	//  scala/PartialFunction.andThen:(Lscala/Function1;)Lscala/PartialFunction;
const #330 = Asciz	g;
const #331 = Asciz	()Lscala/collection/generic/LinearSequenceTemplate;;
const #332 = Asciz	sort;
const #333 = Asciz	(Lscala/Function2;)Lscala/collection/immutable/List;;
const #334 = Asciz	lt$1;
const #335 = Asciz	Lscala/Function2;;
const #336 = Asciz	(Lscala/Function2<TA;TA;Ljava/lang/Boolean;>;)Lscala/collection/immutable/List<TA;>;;
const #337 = Asciz	$minus;
const #338 = Asciz	scala/runtime/BoxedUnit;
const #339 = class	#338;	//  scala/runtime/BoxedUnit
const #340 = Asciz	UNIT;
const #341 = Asciz	Lscala/runtime/BoxedUnit;;
const #342 = NameAndType	#340:#341;//  UNIT:Lscala/runtime/BoxedUnit;
const #343 = Field	#339.#342;	//  scala/runtime/BoxedUnit.UNIT:Lscala/runtime/BoxedUnit;
const #344 = Asciz	these;
const #345 = Asciz	<B:Ljava/lang/Object;>(TB;)Lscala/collection/immutable/List<TB;>;;
const #346 = Asciz	$minus$minus;
const #347 = Asciz	contains;
const #348 = NameAndType	#347:#102;//  contains:(Ljava/lang/Object;)Z
const #349 = InterfaceMethod	#227.#348;	//  scala/collection/generic/SequenceTemplate.contains:(Ljava/lang/Object;)Z
const #350 = Asciz	that;
const #351 = Asciz	<B:Ljava/lang/Object;>(Lscala/collection/immutable/List<TB;>;)Lscala/collection/immutable/List<TB;>;;
const #352 = Asciz	toStream;
const #353 = Asciz	()Lscala/collection/immutable/Stream;;
const #354 = Asciz	scala/collection/immutable/Stream$Empty$;
const #355 = class	#354;	//  scala/collection/immutable/Stream$Empty$
const #356 = Asciz	Lscala/collection/immutable/Stream$Empty$;;
const #357 = NameAndType	#97:#356;//  MODULE$:Lscala/collection/immutable/Stream$Empty$;
const #358 = Field	#355.#357;	//  scala/collection/immutable/Stream$Empty$.MODULE$:Lscala/collection/immutable/Stream$Empty$;
const #359 = Asciz	scala/collection/immutable/Stream$Cons;
const #360 = class	#359;	//  scala/collection/immutable/Stream$Cons
const #361 = Asciz	scala/collection/immutable/List$$anonfun$toStream$1;
const #362 = class	#361;	//  scala/collection/immutable/List$$anonfun$toStream$1
const #363 = Asciz	(Lscala/collection/immutable/List;)V;
const #364 = NameAndType	#3:#363;//  "<init>":(Lscala/collection/immutable/List;)V
const #365 = Method	#362.#364;	//  scala/collection/immutable/List$$anonfun$toStream$1."<init>":(Lscala/collection/immutable/List;)V
const #366 = Asciz	(Ljava/lang/Object;Lscala/Function0;)V;
const #367 = NameAndType	#3:#366;//  "<init>":(Ljava/lang/Object;Lscala/Function0;)V
const #368 = Method	#360.#367;	//  scala/collection/immutable/Stream$Cons."<init>":(Ljava/lang/Object;Lscala/Function0;)V
const #369 = Asciz	()Lscala/collection/immutable/Stream<TA;>;;
const #370 = Asciz	stringPrefix;
const #371 = Asciz	List;
const #372 = String	#371;	//  List
const #373 = Asciz	result;
const #374 = Asciz	()Lscala/collection/immutable/List<TA;>;;
const #375 = Asciz	span;
const #376 = Asciz	(Lscala/Function1;)Lscala/Tuple2;;
const #377 = Asciz	(Lscala/Function1<TA;Ljava/lang/Boolean;>;)Lscala/Tuple2<Lscala/collection/immutable/List<TA;>;Lscala/collection/immutable/List<TA;>;>;;
const #378 = Asciz	(Lscala/Function1<TA;Ljava/lang/Boolean;>;)Lscala/collection/immutable/List<TA;>;;
const #379 = Asciz	splitAt;
const #380 = Asciz	(I)Lscala/Tuple2;;
const #381 = Asciz	i;
const #382 = Asciz	(I)Lscala/Tuple2<Lscala/collection/immutable/List<TA;>;Lscala/collection/immutable/List<TA;>;>;;
const #383 = NameAndType	#224:#225;//  loop$3:(Lscala/collection/immutable/List;Lscala/collection/immutable/List;)Lscala/collection/immutable/List;
const #384 = Method	#131.#383;	//  scala/collection/immutable/List.loop$3:(Lscala/collection/immutable/List;Lscala/collection/immutable/List;)Lscala/collection/immutable/List;
const #385 = Asciz	(I)Lscala/collection/immutable/List<TA;>;;
const #386 = Asciz	start;
const #387 = Asciz	end;
const #388 = Asciz	len;
const #389 = Asciz	(II)Lscala/collection/immutable/List<TA;>;;
const #390 = Asciz	count;
const #391 = Asciz	$plus$plus;
const #392 = Asciz	(Lscala/collection/Iterator;Lscala/collection/generic/BuilderFactory;)Ljava/lang/Object;;
const #393 = Asciz	scala/collection/Iterator;
const #394 = class	#393;	//  scala/collection/Iterator
const #395 = InterfaceMethod	#394.#196;	//  scala/collection/Iterator.toList:()Lscala/collection/immutable/List;
const #396 = Asciz	(Lscala/collection/Traversable;Lscala/collection/generic/BuilderFactory;)Ljava/lang/Object;;
const #397 = NameAndType	#391:#396;//  $plus$plus:(Lscala/collection/Traversable;Lscala/collection/generic/BuilderFactory;)Ljava/lang/Object;
const #398 = Method	#131.#397;	//  scala/collection/immutable/List.$plus$plus:(Lscala/collection/Traversable;Lscala/collection/generic/BuilderFactory;)Ljava/lang/Object;
const #399 = Asciz	Lscala/collection/Iterator;;
const #400 = Asciz	bf;
const #401 = Asciz	Lscala/collection/generic/BuilderFactory;;
const #402 = Asciz	<B:Ljava/lang/Object;That:Ljava/lang/Object;>(Lscala/collection/Iterator<TB;>;Lscala/collection/generic/BuilderFactory<TB;TThat;Lscala/collection/immutable/List<TA;>;>;)TThat;;
const #403 = Asciz	scala/collection/generic/BuilderFactory;
const #404 = class	#403;	//  scala/collection/generic/BuilderFactory
const #405 = Asciz	(Ljava/lang/Object;)Lscala/collection/generic/Builder;;
const #406 = NameAndType	#117:#405;//  apply:(Ljava/lang/Object;)Lscala/collection/generic/Builder;
const #407 = InterfaceMethod	#404.#406;	//  scala/collection/generic/BuilderFactory.apply:(Ljava/lang/Object;)Lscala/collection/generic/Builder;
const #408 = InterfaceMethod	#206.#196;	//  scala/collection/generic/TraversableTemplate.toList:()Lscala/collection/immutable/List;
const #409 = Asciz	$colon$colon$colon;
const #410 = NameAndType	#409:#249;//  $colon$colon$colon:(Lscala/collection/immutable/List;)Lscala/collection/immutable/List;
const #411 = Method	#131.#410;	//  scala/collection/immutable/List.$colon$colon$colon:(Lscala/collection/immutable/List;)Lscala/collection/immutable/List;
const #412 = Asciz	(Lscala/collection/generic/TraversableTemplate;Lscala/collection/Traversable;Lscala/collection/generic/BuilderFactory;)Ljava/lang/Object;;
const #413 = NameAndType	#391:#412;//  $plus$plus:(Lscala/collection/generic/TraversableTemplate;Lscala/collection/Traversable;Lscala/collection/generic/BuilderFactory;)Ljava/lang/Object;
const #414 = Method	#12.#413;	//  scala/collection/generic/TraversableTemplate$class.$plus$plus:(Lscala/collection/generic/TraversableTemplate;Lscala/collection/Traversable;Lscala/collection/generic/BuilderFactory;)Ljava/lang/Object;
const #415 = Asciz	Lscala/collection/Traversable;;
const #416 = Asciz	Lscala/collection/generic/Builder;;
const #417 = Asciz	<B:Ljava/lang/Object;That:Ljava/lang/Object;>(Lscala/collection/Traversable<TB;>;Lscala/collection/generic/BuilderFactory<TB;TThat;Lscala/collection/immutable/List<TA;>;>;)TThat;;
const #418 = NameAndType	#234:#235;//  loop$2:(Lscala/collection/immutable/List;Lscala/Function1;)Lscala/collection/immutable/List;
const #419 = Method	#131.#418;	//  scala/collection/immutable/List.loop$2:(Lscala/collection/immutable/List;Lscala/Function1;)Lscala/collection/immutable/List;
const #420 = Asciz	f$2;
const #421 = Asciz	<B:Ljava/lang/Object;>(Lscala/Function1<TA;TB;>;)Lscala/collection/immutable/List<TB;>;;
const #422 = Asciz	reverseMap;
const #423 = NameAndType	#258:#259;//  loop$1:(Lscala/collection/immutable/List;Lscala/collection/immutable/List;Lscala/Function1;)Lscala/collection/immutable/List;
const #424 = Method	#131.#423;	//  scala/collection/immutable/List.loop$1:(Lscala/collection/immutable/List;Lscala/collection/immutable/List;Lscala/Function1;)Lscala/collection/immutable/List;
const #425 = Asciz	f$1;
const #426 = Asciz	reverse_$colon$colon$colon;
const #427 = Asciz	prefix;
const #428 = Asciz	pres;
const #429 = Asciz	(Ljava/lang/Object;Lscala/collection/immutable/List;)V;
const #430 = NameAndType	#3:#429;//  "<init>":(Ljava/lang/Object;Lscala/collection/immutable/List;)V
const #431 = Method	#106.#430;	//  scala/collection/immutable/$colon$colon."<init>":(Ljava/lang/Object;Lscala/collection/immutable/List;)V
const #432 = Asciz	()TA;;
const #433 = Asciz	companion;
const #434 = Asciz	()Lscala/collection/generic/Companion;;
const #435 = Asciz	scala/collection/immutable/List$;
const #436 = class	#435;	//  scala/collection/immutable/List$
const #437 = Asciz	Lscala/collection/immutable/List$;;
const #438 = NameAndType	#97:#437;//  MODULE$:Lscala/collection/immutable/List$;
const #439 = Field	#436.#438;	//  scala/collection/immutable/List$.MODULE$:Lscala/collection/immutable/List$;
const #440 = Asciz	()Lscala/collection/generic/Companion<Lscala/collection/immutable/List<TA;>;>;;
const #441 = Asciz	addString;
const #442 = Asciz	(Lscala/collection/mutable/StringBuilder;)Lscala/collection/mutable/StringBuilder;;
const #443 = Asciz	(Lscala/collection/generic/TraversableTemplate;Lscala/collection/mutable/StringBuilder;)Lscala/collection/mutable/StringBuilder;;
const #444 = NameAndType	#441:#443;//  addString:(Lscala/collection/generic/TraversableTemplate;Lscala/collection/mutable/StringBuilder;)Lscala/collection/mutable/StringBuilder;
const #445 = Method	#12.#444;	//  scala/collection/generic/TraversableTemplate$class.addString:(Lscala/collection/generic/TraversableTemplate;Lscala/collection/mutable/StringBuilder;)Lscala/collection/mutable/StringBuilder;
const #446 = Asciz	Lscala/collection/mutable/StringBuilder;;
const #447 = Asciz	(Lscala/collection/mutable/StringBuilder;Ljava/lang/String;)Lscala/collection/mutable/StringBuilder;;
const #448 = Asciz	(Lscala/collection/generic/TraversableTemplate;Lscala/collection/mutable/StringBuilder;Ljava/lang/String;)Lscala/collection/mutable/StringBuilder;;
const #449 = NameAndType	#441:#448;//  addString:(Lscala/collection/generic/TraversableTemplate;Lscala/collection/mutable/StringBuilder;Ljava/lang/String;)Lscala/collection/mutable/StringBuilder;
const #450 = Method	#12.#449;	//  scala/collection/generic/TraversableTemplate$class.addString:(Lscala/collection/generic/TraversableTemplate;Lscala/collection/mutable/StringBuilder;Ljava/lang/String;)Lscala/collection/mutable/StringBuilder;
const #451 = Asciz	sep;
const #452 = Asciz	Ljava/lang/String;;
const #453 = Asciz	(Lscala/collection/mutable/StringBuilder;Ljava/lang/String;Ljava/lang/String;Ljava/lang/String;)Lscala/collection/mutable/StringBuilder;;
const #454 = Asciz	(Lscala/collection/generic/TraversableTemplate;Lscala/collection/mutable/StringBuilder;Ljava/lang/String;Ljava/lang/String;Ljava/lang/String;)Lscala/collection/mutable/StringBuilder;;
const #455 = NameAndType	#441:#454;//  addString:(Lscala/collection/generic/TraversableTemplate;Lscala/collection/mutable/StringBuilder;Ljava/lang/String;Ljava/lang/String;Ljava/lang/String;)Lscala/collection/mutable/StringBuilder;
const #456 = Method	#12.#455;	//  scala/collection/generic/TraversableTemplate$class.addString:(Lscala/collection/generic/TraversableTemplate;Lscala/collection/mutable/StringBuilder;Ljava/lang/String;Ljava/lang/String;Ljava/lang/String;)Lscala/collection/mutable/StringBuilder;
const #457 = Asciz	mkString;
const #458 = Asciz	(Lscala/collection/generic/TraversableTemplate;)Ljava/lang/String;;
const #459 = NameAndType	#457:#458;//  mkString:(Lscala/collection/generic/TraversableTemplate;)Ljava/lang/String;
const #460 = Method	#12.#459;	//  scala/collection/generic/TraversableTemplate$class.mkString:(Lscala/collection/generic/TraversableTemplate;)Ljava/lang/String;
const #461 = Asciz	(Ljava/lang/String;)Ljava/lang/String;;
const #462 = Asciz	(Lscala/collection/generic/TraversableTemplate;Ljava/lang/String;)Ljava/lang/String;;
const #463 = NameAndType	#457:#462;//  mkString:(Lscala/collection/generic/TraversableTemplate;Ljava/lang/String;)Ljava/lang/String;
const #464 = Method	#12.#463;	//  scala/collection/generic/TraversableTemplate$class.mkString:(Lscala/collection/generic/TraversableTemplate;Ljava/lang/String;)Ljava/lang/String;
const #465 = Asciz	(Ljava/lang/String;Ljava/lang/String;Ljava/lang/String;)Ljava/lang/String;;
const #466 = Asciz	(Lscala/collection/generic/TraversableTemplate;Ljava/lang/String;Ljava/lang/String;Ljava/lang/String;)Ljava/lang/String;;
const #467 = NameAndType	#457:#466;//  mkString:(Lscala/collection/generic/TraversableTemplate;Ljava/lang/String;Ljava/lang/String;Ljava/lang/String;)Ljava/lang/String;
const #468 = Method	#12.#467;	//  scala/collection/generic/TraversableTemplate$class.mkString:(Lscala/collection/generic/TraversableTemplate;Ljava/lang/String;Ljava/lang/String;Ljava/lang/String;)Ljava/lang/String;
const #469 = Asciz	toSet;
const #470 = Asciz	()Lscala/collection/immutable/Set;;
const #471 = Asciz	(Lscala/collection/generic/TraversableTemplate;)Lscala/collection/immutable/Set;;
const #472 = NameAndType	#469:#471;//  toSet:(Lscala/collection/generic/TraversableTemplate;)Lscala/collection/immutable/Set;
const #473 = Method	#12.#472;	//  scala/collection/generic/TraversableTemplate$class.toSet:(Lscala/collection/generic/TraversableTemplate;)Lscala/collection/immutable/Set;
const #474 = Asciz	toArray;
const #475 = Asciz	()Lscala/runtime/BoxedArray;;
const #476 = Asciz	(Lscala/collection/generic/TraversableTemplate;)Lscala/runtime/BoxedArray;;
const #477 = NameAndType	#474:#476;//  toArray:(Lscala/collection/generic/TraversableTemplate;)Lscala/runtime/BoxedArray;
const #478 = Method	#12.#477;	//  scala/collection/generic/TraversableTemplate$class.toArray:(Lscala/collection/generic/TraversableTemplate;)Lscala/runtime/BoxedArray;
const #479 = Asciz	copyToArray;
const #480 = Asciz	(Lscala/runtime/BoxedArray;I)V;
const #481 = Asciz	(Lscala/collection/generic/TraversableTemplate;Lscala/runtime/BoxedArray;I)V;
const #482 = NameAndType	#479:#481;//  copyToArray:(Lscala/collection/generic/TraversableTemplate;Lscala/runtime/BoxedArray;I)V
const #483 = Method	#12.#482;	//  scala/collection/generic/TraversableTemplate$class.copyToArray:(Lscala/collection/generic/TraversableTemplate;Lscala/runtime/BoxedArray;I)V
const #484 = Asciz	xs;
const #485 = Asciz	Lscala/runtime/BoxedArray;;
const #486 = Asciz	(Lscala/runtime/BoxedArray;II)V;
const #487 = Asciz	(Lscala/collection/generic/TraversableTemplate;Lscala/runtime/BoxedArray;II)V;
const #488 = NameAndType	#479:#487;//  copyToArray:(Lscala/collection/generic/TraversableTemplate;Lscala/runtime/BoxedArray;II)V
const #489 = Method	#12.#488;	//  scala/collection/generic/TraversableTemplate$class.copyToArray:(Lscala/collection/generic/TraversableTemplate;Lscala/runtime/BoxedArray;II)V
const #490 = Asciz	copyToBuffer;
const #491 = Asciz	(Lscala/collection/mutable/Buffer;)V;
const #492 = Asciz	(Lscala/collection/generic/TraversableTemplate;Lscala/collection/mutable/Buffer;)V;
const #493 = NameAndType	#490:#492;//  copyToBuffer:(Lscala/collection/generic/TraversableTemplate;Lscala/collection/mutable/Buffer;)V
const #494 = Method	#12.#493;	//  scala/collection/generic/TraversableTemplate$class.copyToBuffer:(Lscala/collection/generic/TraversableTemplate;Lscala/collection/mutable/Buffer;)V
const #495 = Asciz	dest;
const #496 = Asciz	Lscala/collection/mutable/Buffer;;
const #497 = Asciz	init;
const #498 = Asciz	(Lscala/collection/generic/TraversableTemplate;)Lscala/collection/generic/TraversableTemplate;;
const #499 = NameAndType	#497:#498;//  init:(Lscala/collection/generic/TraversableTemplate;)Lscala/collection/generic/TraversableTemplate;
const #500 = Method	#12.#499;	//  scala/collection/generic/TraversableTemplate$class.init:(Lscala/collection/generic/TraversableTemplate;)Lscala/collection/generic/TraversableTemplate;
const #501 = Asciz	lastOption;
const #502 = Asciz	()Lscala/Option;;
const #503 = Asciz	(Lscala/collection/generic/TraversableTemplate;)Lscala/Option;;
const #504 = NameAndType	#501:#503;//  lastOption:(Lscala/collection/generic/TraversableTemplate;)Lscala/Option;
const #505 = Method	#12.#504;	//  scala/collection/generic/TraversableTemplate$class.lastOption:(Lscala/collection/generic/TraversableTemplate;)Lscala/Option;
const #506 = NameAndType	#207:#498;//  tail:(Lscala/collection/generic/TraversableTemplate;)Lscala/collection/generic/TraversableTemplate;
const #507 = Method	#12.#506;	//  scala/collection/generic/TraversableTemplate$class.tail:(Lscala/collection/generic/TraversableTemplate;)Lscala/collection/generic/TraversableTemplate;
const #508 = Asciz	headOption;
const #509 = NameAndType	#508:#503;//  headOption:(Lscala/collection/generic/TraversableTemplate;)Lscala/Option;
const #510 = Method	#12.#509;	//  scala/collection/generic/TraversableTemplate$class.headOption:(Lscala/collection/generic/TraversableTemplate;)Lscala/Option;
const #511 = Asciz	reduceRightOption;
const #512 = Asciz	(Lscala/Function2;)Lscala/Option;;
const #513 = Asciz	(Lscala/collection/generic/TraversableTemplate;Lscala/Function2;)Lscala/Option;;
const #514 = NameAndType	#511:#513;//  reduceRightOption:(Lscala/collection/generic/TraversableTemplate;Lscala/Function2;)Lscala/Option;
const #515 = Method	#12.#514;	//  scala/collection/generic/TraversableTemplate$class.reduceRightOption:(Lscala/collection/generic/TraversableTemplate;Lscala/Function2;)Lscala/Option;
const #516 = Asciz	op;
const #517 = Asciz	reduceLeftOption;
const #518 = NameAndType	#517:#513;//  reduceLeftOption:(Lscala/collection/generic/TraversableTemplate;Lscala/Function2;)Lscala/Option;
const #519 = Method	#12.#518;	//  scala/collection/generic/TraversableTemplate$class.reduceLeftOption:(Lscala/collection/generic/TraversableTemplate;Lscala/Function2;)Lscala/Option;
const #520 = Asciz	$colon$bslash;
const #521 = Asciz	(Ljava/lang/Object;Lscala/Function2;)Ljava/lang/Object;;
const #522 = Asciz	(Lscala/collection/generic/TraversableTemplate;Ljava/lang/Object;Lscala/Function2;)Ljava/lang/Object;;
const #523 = NameAndType	#520:#522;//  $colon$bslash:(Lscala/collection/generic/TraversableTemplate;Ljava/lang/Object;Lscala/Function2;)Ljava/lang/Object;
const #524 = Method	#12.#523;	//  scala/collection/generic/TraversableTemplate$class.$colon$bslash:(Lscala/collection/generic/TraversableTemplate;Ljava/lang/Object;Lscala/Function2;)Ljava/lang/Object;
const #525 = Asciz	z;
const #526 = Asciz	$div$colon;
const #527 = NameAndType	#526:#522;//  $div$colon:(Lscala/collection/generic/TraversableTemplate;Ljava/lang/Object;Lscala/Function2;)Ljava/lang/Object;
const #528 = Method	#12.#527;	//  scala/collection/generic/TraversableTemplate$class.$div$colon:(Lscala/collection/generic/TraversableTemplate;Ljava/lang/Object;Lscala/Function2;)Ljava/lang/Object;
const #529 = Asciz	groupBy;
const #530 = Asciz	(Lscala/Function1;)Lscala/collection/Map;;
const #531 = Asciz	(Lscala/collection/generic/TraversableTemplate;Lscala/Function1;)Lscala/collection/Map;;
const #532 = NameAndType	#529:#531;//  groupBy:(Lscala/collection/generic/TraversableTemplate;Lscala/Function1;)Lscala/collection/Map;
const #533 = Method	#12.#532;	//  scala/collection/generic/TraversableTemplate$class.groupBy:(Lscala/collection/generic/TraversableTemplate;Lscala/Function1;)Lscala/collection/Map;
const #534 = Asciz	f;
const #535 = Asciz	partition;
const #536 = Asciz	(Lscala/collection/generic/TraversableTemplate;Lscala/Function1;)Lscala/Tuple2;;
const #537 = NameAndType	#535:#536;//  partition:(Lscala/collection/generic/TraversableTemplate;Lscala/Function1;)Lscala/Tuple2;
const #538 = Method	#12.#537;	//  scala/collection/generic/TraversableTemplate$class.partition:(Lscala/collection/generic/TraversableTemplate;Lscala/Function1;)Lscala/Tuple2;
const #539 = Asciz	remove;
const #540 = Asciz	(Lscala/collection/generic/TraversableTemplate;Lscala/Function1;)Lscala/collection/generic/TraversableTemplate;;
const #541 = NameAndType	#539:#540;//  remove:(Lscala/collection/generic/TraversableTemplate;Lscala/Function1;)Lscala/collection/generic/TraversableTemplate;
const #542 = Method	#12.#541;	//  scala/collection/generic/TraversableTemplate$class.remove:(Lscala/collection/generic/TraversableTemplate;Lscala/Function1;)Lscala/collection/generic/TraversableTemplate;
const #543 = Asciz	filterNot;
const #544 = NameAndType	#543:#540;//  filterNot:(Lscala/collection/generic/TraversableTemplate;Lscala/Function1;)Lscala/collection/generic/TraversableTemplate;
const #545 = Method	#12.#544;	//  scala/collection/generic/TraversableTemplate$class.filterNot:(Lscala/collection/generic/TraversableTemplate;Lscala/Function1;)Lscala/collection/generic/TraversableTemplate;
const #546 = Asciz	filterMap;
const #547 = Asciz	(Lscala/PartialFunction;Lscala/collection/generic/BuilderFactory;)Ljava/lang/Object;;
const #548 = Asciz	(Lscala/collection/generic/TraversableTemplate;Lscala/PartialFunction;Lscala/collection/generic/BuilderFactory;)Ljava/lang/Object;;
const #549 = NameAndType	#546:#548;//  filterMap:(Lscala/collection/generic/TraversableTemplate;Lscala/PartialFunction;Lscala/collection/generic/BuilderFactory;)Ljava/lang/Object;
const #550 = Method	#12.#549;	//  scala/collection/generic/TraversableTemplate$class.filterMap:(Lscala/collection/generic/TraversableTemplate;Lscala/PartialFunction;Lscala/collection/generic/BuilderFactory;)Ljava/lang/Object;
const #551 = Asciz	pf;
const #552 = Asciz	Lscala/PartialFunction;;
const #553 = Asciz	filter;
const #554 = NameAndType	#553:#540;//  filter:(Lscala/collection/generic/TraversableTemplate;Lscala/Function1;)Lscala/collection/generic/TraversableTemplate;
const #555 = Method	#12.#554;	//  scala/collection/generic/TraversableTemplate$class.filter:(Lscala/collection/generic/TraversableTemplate;Lscala/Function1;)Lscala/collection/generic/TraversableTemplate;
const #556 = Asciz	flatMap;
const #557 = Asciz	(Lscala/Function1;Lscala/collection/generic/BuilderFactory;)Ljava/lang/Object;;
const #558 = Asciz	(Lscala/collection/generic/TraversableTemplate;Lscala/Function1;Lscala/collection/generic/BuilderFactory;)Ljava/lang/Object;;
const #559 = NameAndType	#556:#558;//  flatMap:(Lscala/collection/generic/TraversableTemplate;Lscala/Function1;Lscala/collection/generic/BuilderFactory;)Ljava/lang/Object;
const #560 = Method	#12.#559;	//  scala/collection/generic/TraversableTemplate$class.flatMap:(Lscala/collection/generic/TraversableTemplate;Lscala/Function1;Lscala/collection/generic/BuilderFactory;)Ljava/lang/Object;
const #561 = Asciz	map;
const #562 = NameAndType	#561:#558;//  map:(Lscala/collection/generic/TraversableTemplate;Lscala/Function1;Lscala/collection/generic/BuilderFactory;)Ljava/lang/Object;
const #563 = Method	#12.#562;	//  scala/collection/generic/TraversableTemplate$class.map:(Lscala/collection/generic/TraversableTemplate;Lscala/Function1;Lscala/collection/generic/BuilderFactory;)Ljava/lang/Object;
const #564 = Asciz	hasDefiniteSize;
const #565 = Asciz	(Lscala/collection/generic/TraversableTemplate;)Z;
const #566 = NameAndType	#564:#565;//  hasDefiniteSize:(Lscala/collection/generic/TraversableTemplate;)Z
const #567 = Method	#12.#566;	//  scala/collection/generic/TraversableTemplate$class.hasDefiniteSize:(Lscala/collection/generic/TraversableTemplate;)Z
const #568 = Asciz	nonEmpty;
const #569 = NameAndType	#568:#565;//  nonEmpty:(Lscala/collection/generic/TraversableTemplate;)Z
const #570 = Method	#12.#569;	//  scala/collection/generic/TraversableTemplate$class.nonEmpty:(Lscala/collection/generic/TraversableTemplate;)Z
const #571 = Asciz	thisCollection;
const #572 = NameAndType	#571:#498;//  thisCollection:(Lscala/collection/generic/TraversableTemplate;)Lscala/collection/generic/TraversableTemplate;
const #573 = Method	#12.#572;	//  scala/collection/generic/TraversableTemplate$class.thisCollection:(Lscala/collection/generic/TraversableTemplate;)Lscala/collection/generic/TraversableTemplate;
const #574 = Asciz	transpose;
const #575 = Asciz	(Lscala/Function1;)Lscala/collection/Traversable;;
const #576 = Asciz	(Lscala/collection/generic/TraversableClass;Lscala/Function1;)Lscala/collection/Traversable;;
const #577 = NameAndType	#574:#576;//  transpose:(Lscala/collection/generic/TraversableClass;Lscala/Function1;)Lscala/collection/Traversable;
const #578 = Method	#18.#577;	//  scala/collection/generic/TraversableClass$class.transpose:(Lscala/collection/generic/TraversableClass;Lscala/Function1;)Lscala/collection/Traversable;
const #579 = Asciz	toTraversable;
const #580 = Asciz	flatten;
const #581 = NameAndType	#580:#576;//  flatten:(Lscala/collection/generic/TraversableClass;Lscala/Function1;)Lscala/collection/Traversable;
const #582 = Method	#18.#581;	//  scala/collection/generic/TraversableClass$class.flatten:(Lscala/collection/generic/TraversableClass;Lscala/Function1;)Lscala/collection/Traversable;
const #583 = Asciz	unzip;
const #584 = Asciz	(Lscala/collection/generic/TraversableClass;Lscala/Function1;)Lscala/Tuple2;;
const #585 = NameAndType	#583:#584;//  unzip:(Lscala/collection/generic/TraversableClass;Lscala/Function1;)Lscala/Tuple2;
const #586 = Method	#18.#585;	//  scala/collection/generic/TraversableClass$class.unzip:(Lscala/collection/generic/TraversableClass;Lscala/Function1;)Lscala/Tuple2;
const #587 = Asciz	toPair;
const #588 = Asciz	genericBuilder;
const #589 = Asciz	()Lscala/collection/generic/Builder;;
const #590 = Asciz	(Lscala/collection/generic/TraversableClass;)Lscala/collection/generic/Builder;;
const #591 = NameAndType	#588:#590;//  genericBuilder:(Lscala/collection/generic/TraversableClass;)Lscala/collection/generic/Builder;
const #592 = Method	#18.#591;	//  scala/collection/generic/TraversableClass$class.genericBuilder:(Lscala/collection/generic/TraversableClass;)Lscala/collection/generic/Builder;
const #593 = Asciz	newBuilder;
const #594 = NameAndType	#593:#590;//  newBuilder:(Lscala/collection/generic/TraversableClass;)Lscala/collection/generic/Builder;
const #595 = Method	#18.#594;	//  scala/collection/generic/TraversableClass$class.newBuilder:(Lscala/collection/generic/TraversableClass;)Lscala/collection/generic/Builder;
const #596 = Asciz	toSeq;
const #597 = Asciz	()Lscala/collection/Sequence;;
const #598 = Asciz	(Lscala/collection/generic/IterableTemplate;)Lscala/collection/Sequence;;
const #599 = NameAndType	#596:#598;//  toSeq:(Lscala/collection/generic/IterableTemplate;)Lscala/collection/Sequence;
const #600 = Method	#33.#599;	//  scala/collection/generic/IterableTemplate$class.toSeq:(Lscala/collection/generic/IterableTemplate;)Lscala/collection/Sequence;
const #601 = Asciz	firstOption;
const #602 = Asciz	(Lscala/collection/generic/IterableTemplate;)Lscala/Option;;
const #603 = NameAndType	#601:#602;//  firstOption:(Lscala/collection/generic/IterableTemplate;)Lscala/Option;
const #604 = Method	#33.#603;	//  scala/collection/generic/IterableTemplate$class.firstOption:(Lscala/collection/generic/IterableTemplate;)Lscala/Option;
const #605 = Asciz	first;
const #606 = Asciz	(Lscala/collection/generic/IterableTemplate;)Ljava/lang/Object;;
const #607 = NameAndType	#605:#606;//  first:(Lscala/collection/generic/IterableTemplate;)Ljava/lang/Object;
const #608 = Method	#33.#607;	//  scala/collection/generic/IterableTemplate$class.first:(Lscala/collection/generic/IterableTemplate;)Ljava/lang/Object;
const #609 = Asciz	toIterable;
const #610 = Asciz	()Lscala/collection/Iterable;;
const #611 = Asciz	(Lscala/collection/generic/IterableTemplate;)Lscala/collection/Iterable;;
const #612 = NameAndType	#609:#611;//  toIterable:(Lscala/collection/generic/IterableTemplate;)Lscala/collection/Iterable;
const #613 = Method	#33.#612;	//  scala/collection/generic/IterableTemplate$class.toIterable:(Lscala/collection/generic/IterableTemplate;)Lscala/collection/Iterable;
const #614 = Asciz	elements;
const #615 = Asciz	()Lscala/collection/Iterator;;
const #616 = Asciz	(Lscala/collection/generic/IterableTemplate;)Lscala/collection/Iterator;;
const #617 = NameAndType	#614:#616;//  elements:(Lscala/collection/generic/IterableTemplate;)Lscala/collection/Iterator;
const #618 = Method	#33.#617;	//  scala/collection/generic/IterableTemplate$class.elements:(Lscala/collection/generic/IterableTemplate;)Lscala/collection/Iterator;
const #619 = Asciz	compose;
const #620 = Asciz	(Lscala/Function1;Lscala/Function1;)Lscala/Function1;;
const #621 = NameAndType	#619:#620;//  compose:(Lscala/Function1;Lscala/Function1;)Lscala/Function1;
const #622 = Method	#48.#621;	//  scala/Function1$class.compose:(Lscala/Function1;Lscala/Function1;)Lscala/Function1;
const #623 = Asciz	(Lscala/PartialFunction;Lscala/Function1;)Lscala/PartialFunction;;
const #624 = NameAndType	#323:#623;//  andThen:(Lscala/PartialFunction;Lscala/Function1;)Lscala/PartialFunction;
const #625 = Method	#53.#624;	//  scala/PartialFunction$class.andThen:(Lscala/PartialFunction;Lscala/Function1;)Lscala/PartialFunction;
const #626 = Asciz	k;
const #627 = Asciz	orElse;
const #628 = Asciz	(Lscala/PartialFunction;)Lscala/PartialFunction;;
const #629 = Asciz	(Lscala/PartialFunction;Lscala/PartialFunction;)Lscala/PartialFunction;;
const #630 = NameAndType	#627:#629;//  orElse:(Lscala/PartialFunction;Lscala/PartialFunction;)Lscala/PartialFunction;
const #631 = Method	#53.#630;	//  scala/PartialFunction$class.orElse:(Lscala/PartialFunction;Lscala/PartialFunction;)Lscala/PartialFunction;
const #632 = Asciz	projection;
const #633 = Asciz	(Lscala/collection/generic/SequenceTemplate;)Ljava/lang/Object;;
const #634 = NameAndType	#632:#633;//  projection:(Lscala/collection/generic/SequenceTemplate;)Ljava/lang/Object;
const #635 = Method	#58.#634;	//  scala/collection/generic/SequenceTemplate$class.projection:(Lscala/collection/generic/SequenceTemplate;)Ljava/lang/Object;
const #636 = Asciz	containsSlice;
const #637 = Asciz	(Lscala/collection/Sequence;)Z;
const #638 = Asciz	(Lscala/collection/generic/SequenceTemplate;Lscala/collection/Sequence;)Z;
const #639 = NameAndType	#636:#638;//  containsSlice:(Lscala/collection/generic/SequenceTemplate;Lscala/collection/Sequence;)Z
const #640 = Method	#58.#639;	//  scala/collection/generic/SequenceTemplate$class.containsSlice:(Lscala/collection/generic/SequenceTemplate;Lscala/collection/Sequence;)Z
const #641 = Asciz	Lscala/collection/Sequence;;
const #642 = Asciz	equalsWith;
const #643 = Asciz	(Lscala/collection/Sequence;Lscala/Function2;)Z;
const #644 = Asciz	(Lscala/collection/generic/SequenceTemplate;Lscala/collection/Sequence;Lscala/Function2;)Z;
const #645 = NameAndType	#642:#644;//  equalsWith:(Lscala/collection/generic/SequenceTemplate;Lscala/collection/Sequence;Lscala/Function2;)Z
const #646 = Method	#58.#645;	//  scala/collection/generic/SequenceTemplate$class.equalsWith:(Lscala/collection/generic/SequenceTemplate;Lscala/collection/Sequence;Lscala/Function2;)Z
const #647 = Asciz	(I)Lscala/collection/Sequence;;
const #648 = Asciz	(Lscala/collection/generic/SequenceTemplate;I)Lscala/collection/Sequence;;
const #649 = NameAndType	#276:#648;//  slice:(Lscala/collection/generic/SequenceTemplate;I)Lscala/collection/Sequence;
const #650 = Method	#58.#649;	//  scala/collection/generic/SequenceTemplate$class.slice:(Lscala/collection/generic/SequenceTemplate;I)Lscala/collection/Sequence;
const #651 = Asciz	findLastIndexOf;
const #652 = Asciz	(Lscala/Function1;)I;
const #653 = Asciz	(Lscala/collection/generic/SequenceTemplate;Lscala/Function1;)I;
const #654 = NameAndType	#651:#653;//  findLastIndexOf:(Lscala/collection/generic/SequenceTemplate;Lscala/Function1;)I
const #655 = Method	#58.#654;	//  scala/collection/generic/SequenceTemplate$class.findLastIndexOf:(Lscala/collection/generic/SequenceTemplate;Lscala/Function1;)I
const #656 = Asciz	(Lscala/collection/generic/SequenceTemplate;)Ljava/lang/String;;
const #657 = NameAndType	#156:#656;//  toString:(Lscala/collection/generic/SequenceTemplate;)Ljava/lang/String;
const #658 = Method	#58.#657;	//  scala/collection/generic/SequenceTemplate$class.toString:(Lscala/collection/generic/SequenceTemplate;)Ljava/lang/String;
const #659 = Asciz	(Lscala/collection/generic/SequenceTemplate;II)Lscala/collection/generic/SequenceView;;
const #660 = NameAndType	#317:#659;//  view:(Lscala/collection/generic/SequenceTemplate;II)Lscala/collection/generic/SequenceView;
const #661 = Method	#58.#660;	//  scala/collection/generic/SequenceTemplate$class.view:(Lscala/collection/generic/SequenceTemplate;II)Lscala/collection/generic/SequenceView;
const #662 = NameAndType	#317:#633;//  view:(Lscala/collection/generic/SequenceTemplate;)Ljava/lang/Object;
const #663 = Method	#58.#662;	//  scala/collection/generic/SequenceTemplate$class.view:(Lscala/collection/generic/SequenceTemplate;)Ljava/lang/Object;
const #664 = Asciz	indices;
const #665 = Asciz	()Lscala/Range;;
const #666 = Asciz	(Lscala/collection/generic/SequenceTemplate;)Lscala/Range;;
const #667 = NameAndType	#664:#666;//  indices:(Lscala/collection/generic/SequenceTemplate;)Lscala/Range;
const #668 = Method	#58.#667;	//  scala/collection/generic/SequenceTemplate$class.indices:(Lscala/collection/generic/SequenceTemplate;)Lscala/Range;
const #669 = Asciz	toSequence;
const #670 = Asciz	(Lscala/collection/generic/SequenceTemplate;)Lscala/collection/Sequence;;
const #671 = NameAndType	#669:#670;//  toSequence:(Lscala/collection/generic/SequenceTemplate;)Lscala/collection/Sequence;
const #672 = Method	#58.#671;	//  scala/collection/generic/SequenceTemplate$class.toSequence:(Lscala/collection/generic/SequenceTemplate;)Lscala/collection/Sequence;
const #673 = Asciz	padTo;
const #674 = Asciz	(ILjava/lang/Object;Lscala/collection/generic/BuilderFactory;)Ljava/lang/Object;;
const #675 = Asciz	(Lscala/collection/generic/SequenceTemplate;ILjava/lang/Object;Lscala/collection/generic/BuilderFactory;)Ljava/lang/Object;;
const #676 = NameAndType	#673:#675;//  padTo:(Lscala/collection/generic/SequenceTemplate;ILjava/lang/Object;Lscala/collection/generic/BuilderFactory;)Ljava/lang/Object;
const #677 = Method	#58.#676;	//  scala/collection/generic/SequenceTemplate$class.padTo:(Lscala/collection/generic/SequenceTemplate;ILjava/lang/Object;Lscala/collection/generic/BuilderFactory;)Ljava/lang/Object;
const #678 = Asciz	elem;
const #679 = Asciz	patch;
const #680 = Asciz	(ILscala/collection/Sequence;ILscala/collection/generic/BuilderFactory;)Ljava/lang/Object;;
const #681 = Asciz	(Lscala/collection/generic/SequenceTemplate;ILscala/collection/Sequence;ILscala/collection/generic/BuilderFactory;)Ljava/lang/Object;;
const #682 = NameAndType	#679:#681;//  patch:(Lscala/collection/generic/SequenceTemplate;ILscala/collection/Sequence;ILscala/collection/generic/BuilderFactory;)Ljava/lang/Object;
[...]
   4:	areturn
  LineNumberTable: 
   line 26: 0


public int lastIndexWhere(scala.Function1);
  Code:
   Stack=2, Locals=2, Args_size=2
   0:	aload_0
   1:	aload_1
   2:	invokestatic	#740; //Method scala/collection/generic/SequenceTemplate$class.lastIndexWhere:(Lscala/collection/generic/SequenceTemplate;Lscala/Function1;)I
   5:	ireturn
  LineNumberTable: 
   line 26: 0

  LocalVariableTable: 
   Start  Length  Slot  Name   Signature
   0      6      0    this       Lscala/collection/immutable/List;
   0      6      1    p       Lscala/Function1;


public int lastIndexOf(java.lang.Object, int);
  Code:
   Stack=3, Locals=3, Args_size=3
   0:	aload_0
   1:	aload_1
   2:	iload_2
   3:	invokestatic	#745; //Method scala/collection/generic/SequenceTemplate$class.lastIndexOf:(Lscala/collection/generic/SequenceTemplate;Ljava/lang/Object;I)I
   6:	ireturn
  LineNumberTable: 
   line 26: 0

  LocalVariableTable: 
   Start  Length  Slot  Name   Signature
   0      7      0    this       Lscala/collection/immutable/List;
   0      7      1    elem       Ljava/lang/Object;
   0      7      2    end       I


public int lastIndexOf(java.lang.Object);
  Code:
   Stack=2, Locals=2, Args_size=2
   0:	aload_0
   1:	aload_1
   2:	invokestatic	#748; //Method scala/collection/generic/SequenceTemplate$class.lastIndexOf:(Lscala/collection/generic/SequenceTemplate;Ljava/lang/Object;)I
   5:	ireturn
  LineNumberTable: 
   line 26: 0

  LocalVariableTable: 
   Start  Length  Slot  Name   Signature
   0      6      0    this       Lscala/collection/immutable/List;
   0      6      1    elem       Ljava/lang/Object;


public int indexOf(java.lang.Object, int);
  Code:
   Stack=3, Locals=3, Args_size=3
   0:	aload_0
   1:	aload_1
   2:	iload_2
   3:	invokestatic	#751; //Method scala/collection/generic/SequenceTemplate$class.indexOf:(Lscala/collection/generic/SequenceTemplate;Ljava/lang/Object;I)I
   6:	ireturn
  LineNumberTable: 
   line 26: 0

  LocalVariableTable: 
   Start  Length  Slot  Name   Signature
   0      7      0    this       Lscala/collection/immutable/List;
   0      7      1    elem       Ljava/lang/Object;
   0      7      2    from       I


public int indexOf(java.lang.Object);
  Code:
   Stack=2, Locals=2, Args_size=2
   0:	aload_0
   1:	aload_1
   2:	invokestatic	#753; //Method scala/collection/generic/SequenceTemplate$class.indexOf:(Lscala/collection/generic/SequenceTemplate;Ljava/lang/Object;)I
   5:	ireturn
  LineNumberTable: 
   line 26: 0

  LocalVariableTable: 
   Start  Length  Slot  Name   Signature
   0      6      0    this       Lscala/collection/immutable/List;
   0      6      1    elem       Ljava/lang/Object;


public int findIndexOf(scala.Function1);
  Code:
   Stack=2, Locals=2, Args_size=2
   0:	aload_0
   1:	aload_1
   2:	invokestatic	#756; //Method scala/collection/generic/SequenceTemplate$class.findIndexOf:(Lscala/collection/generic/SequenceTemplate;Lscala/Function1;)I
   5:	ireturn
  LineNumberTable: 
   line 26: 0

  LocalVariableTable: 
   Start  Length  Slot  Name   Signature
   0      6      0    this       Lscala/collection/immutable/List;
   0      6      1    p       Lscala/Function1;


public int indexWhere(scala.Function1);
  Code:
   Stack=2, Locals=2, Args_size=2
   0:	aload_0
   1:	aload_1
   2:	invokestatic	#759; //Method scala/collection/generic/SequenceTemplate$class.indexWhere:(Lscala/collection/generic/SequenceTemplate;Lscala/Function1;)I
   5:	ireturn
  LineNumberTable: 
   line 26: 0

  LocalVariableTable: 
   Start  Length  Slot  Name   Signature
   0      6      0    this       Lscala/collection/immutable/List;
   0      6      1    p       Lscala/Function1;


public int prefixLength(scala.Function1);
  Code:
   Stack=2, Locals=2, Args_size=2
   0:	aload_0
   1:	aload_1
   2:	invokestatic	#762; //Method scala/collection/generic/SequenceTemplate$class.prefixLength:(Lscala/collection/generic/SequenceTemplate;Lscala/Function1;)I
   5:	ireturn
  LineNumberTable: 
   line 26: 0

  LocalVariableTable: 
   Start  Length  Slot  Name   Signature
   0      6      0    this       Lscala/collection/immutable/List;
   0      6      1    p       Lscala/Function1;


public java.lang.Object zipWithIndex(scala.collection.generic.BuilderFactory);
  Code:
   Stack=2, Locals=2, Args_size=2
   0:	aload_0
   1:	aload_1
   2:	invokestatic	#767; //Method scala/collection/generic/SequenceTemplate$class.zipWithIndex:(Lscala/collection/generic/SequenceTemplate;Lscala/collection/generic/BuilderFactory;)Ljava/lang/Object;
   5:	areturn
  LineNumberTable: 
   line 26: 0

  LocalVariableTable: 
   Start  Length  Slot  Name   Signature
   0      6      0    this       Lscala/collection/immutable/List;
   0      6      1    bf       Lscala/collection/generic/BuilderFactory;


public java.lang.Object zipAll(scala.collection.Sequence, java.lang.Object, java.lang.Object, scala.collection.generic.BuilderFactory);
  Code:
   Stack=5, Locals=5, Args_size=5
   0:	aload_0
   1:	aload_1
   2:	aload_2
   3:	aload_3
   4:	aload	4
   6:	invokestatic	#772; //Method scala/collection/generic/SequenceTemplate$class.zipAll:(Lscala/collection/generic/SequenceTemplate;Lscala/collection/Sequence;Ljava/lang/Object;Ljava/lang/Object;Lscala/collection/generic/BuilderFactory;)Ljava/lang/Object;
   9:	areturn
  LineNumberTable: 
   line 26: 0

  LocalVariableTable: 
   Start  Length  Slot  Name   Signature
   0      10      0    this       Lscala/collection/immutable/List;
   0      10      1    that       Lscala/collection/Sequence;
   0      10      2    thisElem       Ljava/lang/Object;
   0      10      3    thatElem       Ljava/lang/Object;
   0      10      4    bf       Lscala/collection/generic/BuilderFactory;


public java.lang.Object zip(scala.collection.Sequence, scala.collection.generic.BuilderFactory);
  Code:
   Stack=3, Locals=3, Args_size=3
   0:	aload_0
   1:	aload_1
   2:	aload_2
   3:	invokestatic	#777; //Method scala/collection/generic/SequenceTemplate$class.zip:(Lscala/collection/generic/SequenceTemplate;Lscala/collection/Sequence;Lscala/collection/generic/BuilderFactory;)Ljava/lang/Object;
   6:	areturn
  LineNumberTable: 
   line 26: 0

  LocalVariableTable: 
   Start  Length  Slot  Name   Signature
   0      7      0    this       Lscala/collection/immutable/List;
   0      7      1    that       Lscala/collection/Sequence;
   0      7      2    bf       Lscala/collection/generic/BuilderFactory;


public int size();
  Code:
   Stack=1, Locals=1, Args_size=1
   0:	aload_0
   1:	invokestatic	#782; //Method scala/collection/generic/SequenceTemplate$class.size:(Lscala/collection/generic/SequenceTemplate;)I
   4:	ireturn
  LineNumberTable: 
   line 26: 0


public int hashCode();
  Code:
   Stack=1, Locals=1, Args_size=1
   0:	aload_0
   1:	invokestatic	#786; //Method scala/collection/immutable/Sequence$class.hashCode:(Lscala/collection/immutable/Sequence;)I
   4:	ireturn
  LineNumberTable: 
   line 26: 0


public boolean equals(java.lang.Object);
  Code:
   Stack=2, Locals=2, Args_size=2
   0:	aload_0
   1:	aload_1
   2:	invokestatic	#789; //Method scala/collection/generic/LinearSequenceTemplate$class.equals:(Lscala/collection/generic/LinearSequenceTemplate;Ljava/lang/Object;)Z
   5:	ireturn
  LineNumberTable: 
   line 26: 0

  LocalVariableTable: 
   Start  Length  Slot  Name   Signature
   0      6      0    this       Lscala/collection/immutable/List;
   0      6      1    that       Ljava/lang/Object;


public int lastIndexWhere(scala.Function1, int);
  Code:
   Stack=3, Locals=3, Args_size=3
   0:	aload_0
   1:	aload_1
   2:	iload_2
   3:	invokestatic	#793; //Method scala/collection/generic/LinearSequenceTemplate$class.lastIndexWhere:(Lscala/collection/generic/LinearSequenceTemplate;Lscala/Function1;I)I
   6:	ireturn
  LineNumberTable: 
   line 26: 0

  LocalVariableTable: 
   Start  Length  Slot  Name   Signature
   0      7      0    this       Lscala/collection/immutable/List;
   0      7      1    p       Lscala/Function1;
   0      7      2    end       I


public int indexWhere(scala.Function1, int);
  Code:
   Stack=3, Locals=3, Args_size=3
   0:	aload_0
   1:	aload_1
   2:	iload_2
   3:	invokestatic	#795; //Method scala/collection/generic/LinearSequenceTemplate$class.indexWhere:(Lscala/collection/generic/LinearSequenceTemplate;Lscala/Function1;I)I
   6:	ireturn
  LineNumberTable: 
   line 26: 0

  LocalVariableTable: 
   Start  Length  Slot  Name   Signature
   0      7      0    this       Lscala/collection/immutable/List;
   0      7      1    p       Lscala/Function1;
   0      7      2    from       I


public int segmentLength(scala.Function1, int);
  Code:
   Stack=3, Locals=3, Args_size=3
   0:	aload_0
   1:	aload_1
   2:	iload_2
   3:	invokestatic	#798; //Method scala/collection/generic/LinearSequenceTemplate$class.segmentLength:(Lscala/collection/generic/LinearSequenceTemplate;Lscala/Function1;I)I
   6:	ireturn
  LineNumberTable: 
   line 26: 0

  LocalVariableTable: 
   Start  Length  Slot  Name   Signature
   0      7      0    this       Lscala/collection/immutable/List;
   0      7      1    p       Lscala/Function1;
   0      7      2    from       I


public boolean isDefinedAt(int);
  Code:
   Stack=2, Locals=2, Args_size=2
   0:	aload_0
   1:	iload_1
   2:	invokestatic	#801; //Method scala/collection/generic/LinearSequenceTemplate$class.isDefinedAt:(Lscala/collection/generic/LinearSequenceTemplate;I)Z
   5:	ireturn
  LineNumberTable: 
   line 26: 0

  LocalVariableTable: 
   Start  Length  Slot  Name   Signature
   0      6      0    this       Lscala/collection/immutable/List;
   0      6      1    x       I


public int lengthCompare(int);
  Code:
   Stack=2, Locals=2, Args_size=2
   0:	aload_0
   1:	iload_1
   2:	invokestatic	#806; //Method scala/collection/generic/LinearSequenceTemplate$class.lengthCompare:(Lscala/collection/generic/LinearSequenceTemplate;I)I
   5:	ireturn
  LineNumberTable: 
   line 26: 0

  LocalVariableTable: 
   Start  Length  Slot  Name   Signature
   0      6      0    this       Lscala/collection/immutable/List;
   0      6      1    len       I


public boolean sameElements(scala.collection.Iterable);
  Code:
   Stack=2, Locals=2, Args_size=2
   0:	aload_0
   1:	aload_1
   2:	invokestatic	#811; //Method scala/collection/generic/LinearSequenceTemplate$class.sameElements:(Lscala/collection/generic/LinearSequenceTemplate;Lscala/collection/Iterable;)Z
   5:	ireturn
  LineNumberTable: 
   line 26: 0

  LocalVariableTable: 
   Start  Length  Slot  Name   Signature
   0      6      0    this       Lscala/collection/immutable/List;
   0      6      1    that       Lscala/collection/Iterable;


public scala.collection.generic.LinearSequenceTemplate dropRight(int);
  Code:
   Stack=2, Locals=2, Args_size=2
   0:	aload_0
   1:	iload_1
   2:	invokestatic	#815; //Method scala/collection/generic/LinearSequenceTemplate$class.dropRight:(Lscala/collection/generic/LinearSequenceTemplate;I)Lscala/collection/generic/LinearSequenceTemplate;
   5:	areturn
  LineNumberTable: 
   line 26: 0

  LocalVariableTable: 
   Start  Length  Slot  Name   Signature
   0      6      0    this       Lscala/collection/immutable/List;
   0      6      1    n       I


public java.lang.Object last();
  Code:
   Stack=1, Locals=1, Args_size=1
   0:	aload_0
   1:	invokestatic	#819; //Method scala/collection/generic/LinearSequenceTemplate$class.last:(Lscala/collection/generic/LinearSequenceTemplate;)Ljava/lang/Object;
   4:	areturn
  LineNumberTable: 
   line 26: 0


public java.lang.Object reduceRight(scala.Function2);
  Code:
   Stack=2, Locals=2, Args_size=2
   0:	aload_0
   1:	aload_1
   2:	invokestatic	#824; //Method scala/collection/generic/LinearSequenceTemplate$class.reduceRight:(Lscala/collection/generic/LinearSequenceTemplate;Lscala/Function2;)Ljava/lang/Object;
   5:	areturn
  LineNumberTable: 
   line 26: 0

  LocalVariableTable: 
   Start  Length  Slot  Name   Signature
   0      6      0    this       Lscala/collection/immutable/List;
   0      6      1    op       Lscala/Function2;


public java.lang.Object reduceLeft(scala.Function2);
  Code:
   Stack=2, Locals=2, Args_size=2
   0:	aload_0
   1:	aload_1
   2:	invokestatic	#827; //Method scala/collection/generic/LinearSequenceTemplate$class.reduceLeft:(Lscala/collection/generic/LinearSequenceTemplate;Lscala/Function2;)Ljava/lang/Object;
   5:	areturn
  LineNumberTable: 
   line 26: 0

  LocalVariableTable: 
   Start  Length  Slot  Name   Signature
   0      6      0    this       Lscala/collection/immutable/List;
   0      6      1    f       Lscala/Function2;


public java.lang.Object foldRight(java.lang.Object, scala.Function2);
  Code:
   Stack=3, Locals=3, Args_size=3
   0:	aload_0
   1:	aload_1
   2:	aload_2
   3:	invokestatic	#831; //Method scala/collection/generic/LinearSequenceTemplate$class.foldRight:(Lscala/collection/generic/LinearSequenceTemplate;Ljava/lang/Object;Lscala/Function2;)Ljava/lang/Object;
   6:	areturn
  LineNumberTable: 
   line 26: 0

  LocalVariableTable: 
   Start  Length  Slot  Name   Signature
   0      7      0    this       Lscala/collection/immutable/List;
   0      7      1    z       Ljava/lang/Object;
   0      7      2    f       Lscala/Function2;


public java.lang.Object foldLeft(java.lang.Object, scala.Function2);
  Code:
   Stack=3, Locals=3, Args_size=3
   0:	aload_0
   1:	aload_1
   2:	aload_2
   3:	invokestatic	#834; //Method scala/collection/generic/LinearSequenceTemplate$class.foldLeft:(Lscala/collection/generic/LinearSequenceTemplate;Ljava/lang/Object;Lscala/Function2;)Ljava/lang/Object;
   6:	areturn
  LineNumberTable: 
   line 26: 0

  LocalVariableTable: 
   Start  Length  Slot  Name   Signature
   0      7      0    this       Lscala/collection/immutable/List;
   0      7      1    z       Ljava/lang/Object;
   0      7      2    f       Lscala/Function2;


public scala.Option find(scala.Function1);
  Code:
   Stack=2, Locals=2, Args_size=2
   0:	aload_0
   1:	aload_1
   2:	invokestatic	#839; //Method scala/collection/generic/LinearSequenceTemplate$class.find:(Lscala/collection/generic/LinearSequenceTemplate;Lscala/Function1;)Lscala/Option;
   5:	areturn
  LineNumberTable: 
   line 26: 0

  LocalVariableTable: 
   Start  Length  Slot  Name   Signature
   0      6      0    this       Lscala/collection/immutable/List;
   0      6      1    p       Lscala/Function1;


public int count(scala.Function1);
  Code:
   Stack=2, Locals=2, Args_size=2
   0:	aload_0
   1:	aload_1
   2:	invokestatic	#842; //Method scala/collection/generic/LinearSequenceTemplate$class.count:(Lscala/collection/generic/LinearSequenceTemplate;Lscala/Function1;)I
   5:	ireturn
  LineNumberTable: 
   line 26: 0

  LocalVariableTable: 
   Start  Length  Slot  Name   Signature
   0      6      0    this       Lscala/collection/immutable/List;
   0      6      1    p       Lscala/Function1;


public boolean exists(scala.Function1);
  Code:
   Stack=2, Locals=2, Args_size=2
   0:	aload_0
   1:	aload_1
   2:	invokestatic	#847; //Method scala/collection/generic/LinearSequenceTemplate$class.exists:(Lscala/collection/generic/LinearSequenceTemplate;Lscala/Function1;)Z
   5:	ireturn
  LineNumberTable: 
   line 26: 0

  LocalVariableTable: 
   Start  Length  Slot  Name   Signature
   0      6      0    this       Lscala/collection/immutable/List;
   0      6      1    p       Lscala/Function1;


public boolean forall(scala.Function1);
  Code:
   Stack=2, Locals=2, Args_size=2
   0:	aload_0
   1:	aload_1
   2:	invokestatic	#850; //Method scala/collection/generic/LinearSequenceTemplate$class.forall:(Lscala/collection/generic/LinearSequenceTemplate;Lscala/Function1;)Z
   5:	ireturn
  LineNumberTable: 
   line 26: 0

  LocalVariableTable: 
   Start  Length  Slot  Name   Signature
   0      6      0    this       Lscala/collection/immutable/List;
   0      6      1    p       Lscala/Function1;


public void foreach(scala.Function1);
  Code:
   Stack=2, Locals=2, Args_size=2
   0:	aload_0
   1:	aload_1
   2:	invokestatic	#854; //Method scala/collection/generic/LinearSequenceTemplate$class.foreach:(Lscala/collection/generic/LinearSequenceTemplate;Lscala/Function1;)V
   5:	return
  LineNumberTable: 
   line 26: 0

  LocalVariableTable: 
   Start  Length  Slot  Name   Signature
   0      6      0    this       Lscala/collection/immutable/List;
   0      6      1    f       Lscala/Function1;


public scala.collection.Iterator iterator();
  Code:
   Stack=1, Locals=1, Args_size=1
   0:	aload_0
   1:	invokestatic	#858; //Method scala/collection/generic/LinearSequenceTemplate$class.iterator:(Lscala/collection/generic/LinearSequenceTemplate;)Lscala/collection/Iterator;
   4:	areturn
  LineNumberTable: 
   line 26: 0


public java.lang.Object apply(int);
  Code:
   Stack=2, Locals=2, Args_size=2
   0:	aload_0
   1:	iload_1
   2:	invokestatic	#861; //Method scala/collection/generic/LinearSequenceTemplate$class.apply:(Lscala/collection/generic/LinearSequenceTemplate;I)Ljava/lang/Object;
   5:	areturn
  LineNumberTable: 
   line 26: 0

  LocalVariableTable: 
   Start  Length  Slot  Name   Signature
   0      6      0    this       Lscala/collection/immutable/List;
   0      6      1    n       I


public int length();
  Code:
   Stack=1, Locals=1, Args_size=1
   0:	aload_0
   1:	invokestatic	#865; //Method scala/collection/generic/LinearSequenceTemplate$class.length:(Lscala/collection/generic/LinearSequenceTemplate;)I
   4:	ireturn
  LineNumberTable: 
   line 26: 0


public final boolean scala$collection$generic$LinearSequenceTemplate$$super$equals(java.lang.Object);
  Code:
   Stack=2, Locals=2, Args_size=2
   0:	aload_0
   1:	aload_1
   2:	invokestatic	#868; //Method scala/collection/generic/SequenceTemplate$class.equals:(Lscala/collection/generic/SequenceTemplate;Ljava/lang/Object;)Z
   5:	ireturn
  LineNumberTable: 
   line 26: 0

  LocalVariableTable: 
   Start  Length  Slot  Name   Signature
   0      6      0    this       Lscala/collection/immutable/List;
   0      6      1    that       Ljava/lang/Object;


public final boolean scala$collection$generic$LinearSequenceTemplate$$super$sameElements(scala.collection.Iterable);
  Code:
   Stack=2, Locals=2, Args_size=2
   0:	aload_0
   1:	aload_1
   2:	invokestatic	#872; //Method scala/collection/generic/IterableTemplate$class.sameElements:(Lscala/collection/generic/IterableTemplate;Lscala/collection/Iterable;)Z
   5:	ireturn
  LineNumberTable: 
   line 26: 0

  LocalVariableTable: 
   Start  Length  Slot  Name   Signature
   0      6      0    this       Lscala/collection/immutable/List;
   0      6      1    that       Lscala/collection/Iterable;


public boolean canEqual(java.lang.Object);
  Code:
   Stack=2, Locals=2, Args_size=2
   0:	aload_0
   1:	aload_1
   2:	invokestatic	#876; //Method scala/Product$class.canEqual:(Lscala/Product;Ljava/lang/Object;)Z
   5:	ireturn
  LineNumberTable: 
   line 26: 0

  LocalVariableTable: 
   Start  Length  Slot  Name   Signature
   0      6      0    this       Lscala/collection/immutable/List;
   0      6      1    other       Ljava/lang/Object;


public java.lang.String productPrefix();
  Code:
   Stack=1, Locals=1, Args_size=1
   0:	aload_0
   1:	invokestatic	#881; //Method scala/Product$class.productPrefix:(Lscala/Product;)Ljava/lang/String;
   4:	areturn
  LineNumberTable: 
   line 26: 0


public scala.collection.Iterator productElements();
  Code:
   Stack=1, Locals=1, Args_size=1
   0:	aload_0
   1:	invokestatic	#885; //Method scala/Product$class.productElements:(Lscala/Product;)Lscala/collection/Iterator;
   4:	areturn
  LineNumberTable: 
   line 26: 0


public scala.collection.Iterator productIterator();
  Code:
   Stack=1, Locals=1, Args_size=1
   0:	aload_0
   1:	invokestatic	#888; //Method scala/Product$class.productIterator:(Lscala/Product;)Lscala/collection/Iterator;
   4:	areturn
  LineNumberTable: 
   line 26: 0


}

