Compiled from "Map.scala"
public interface scala.collection.immutable.Map extends scala.collection.immutable.Iterable,scala.collection.Map,scala.collection.immutable.MapLike,scala.ScalaObject
  SourceFile: "Map.scala"
  Signature: length = 0x2
   00 13 
  ScalaSig: length = 0x10A1
   05 00 FFFFFF84 22 06 07 01 02 FFFFFF90 FFFFFF80 FFFFFF81 00 09 02 03 4D
   61 70 0A 02 03 04 01 09 69 6D 6D 75 74 61 62 6C
   65 0A 02 05 06 01 0A 63 6F 6C 6C 65 63 74 69 6F
   6E 0A 01 07 01 05 73 63 61 6C 61 03 00 15 03 0A
   1D 27 13 06 00 0B 13 29 2C 30 10 02 0C 11 0D 01
   0D 0A 02 0E 0F 01 04 6C 61 6E 67 0A 01 10 01 04
   6A 61 76 61 09 02 12 0D 02 06 4F 62 6A 65 63 74
   10 03 14 15 17 0D 01 02 09 02 16 02 02 08 49 74
   65 72 61 62 6C 65 10 04 18 19 1B 26 0D 01 06 09
   02 1A 06 02 06 54 75 70 6C 65 32 10 02 1C 1D 0C
   00 04 08 1E 00 FFFFFF84 FFFFFF80 FFFFFF80 FFFFFFC2 00 1F 02 01 41 11 02
   20 23 10 02 18 21 09 02 22 06 02 07 4E 6F 74 68
   69 6E 67 10 02 18 24 09 02 25 06 02 03 41 6E 79
   10 02 1C 27 04 08 28 00 FFFFFF84 FFFFFF80 FFFFFF84 FFFFFFC2 00 1F 02 01
   42 10 04 2A 2B 1B 26 0D 01 04 09 02 01 04 10 05
   14 2D 1B 26 2F 09 02 2E 02 02 07 4D 61 70 4C 69
   6B 65 10 04 14 00 1B 26 10 02 18 31 09 02 32 06
   02 0B 53 63 61 6C 61 4F 62 6A 65 63 74 08 05 34
   00 FFFFFF84 00 35 01 06 24 69 6E 69 74 24 14 01 36 10
   02 18 37 09 02 38 06 02 04 55 6E 69 74 08 05 3A
   00 FFFFFF84 20 3B 01 05 65 6D 70 74 79 15 01 2F 08 05
   3D 00 FFFFFF86 20 3E 01 07 75 70 64 61 74 65 64 15 02
   3F 42 14 03 40 45 47 10 04 14 00 1B 41 10 02 1C
   42 04 08 43 3C FFFFFF84 FFFFFF80 FFFFFF80 FFFFFFC2 00 44 02 02 42 31 11
   02 26 23 08 05 46 3C FFFFFFC0 00 1B 01 03 6B 65 79 08
   05 48 3C FFFFFFC0 00 41 01 05 76 61 6C 75 65 08 05 4A
   00 FFFFFF86 00 4B 01 05 24 70 6C 75 73 15 02 4C 4F 14
   02 4D 50 10 04 14 00 1B 4E 10 02 1C 4F 04 08 43
   49 FFFFFF84 FFFFFF80 FFFFFF80 FFFFFFC2 00 44 08 05 51 49 FFFFFFC0 00 52 01 02
   6B 76 10 04 18 19 1B 4E 08 05 54 00 FFFFFF84 00 55 01
   0B 77 69 74 68 44 65 66 61 75 6C 74 15 02 56 59
   14 02 57 5A 10 04 14 00 1B 58 10 02 1C 59 04 08
   43 53 FFFFFF84 FFFFFF80 FFFFFF80 FFFFFFC2 00 44 08 05 5B 53 FFFFFFC0 00 5C 01
   01 64 10 04 18 5D 1B 58 09 02 5E 06 02 09 46 75
   6E 63 74 69 6F 6E 31 08 05 60 00 FFFFFF84 00 61 01 10
   77 69 74 68 44 65 66 61 75 6C 74 56 61 6C 75 65
   15 02 62 65 14 02 63 66 10 04 14 00 1B 64 10 02
   1C 65 04 08 43 5F FFFFFF84 FFFFFF80 FFFFFF80 FFFFFFC2 00 44 08 05 5B 5F
   FFFFFFC0 00 64 07 05 68 02 FFFFFF88 02 69 01 03 4D 61 70 10
   02 14 6A 06 08 01 02 FFFFFF84 FFFFFF80 FFFFFF80 FFFFFF88 02 6B 13 03 6A
   6C 30 10 03 6D 70 72 0D 01 6E 0A 02 6F 04 01 07
   67 65 6E 65 72 69 63 09 02 71 6E 02 13 49 6D 6D
   75 74 61 62 6C 65 4D 61 70 46 61 63 74 6F 72 79
   10 02 14 00 08 05 74 6A FFFFFF84 00 75 01 06 3C 69 6E
   69 74 3E 14 01 69 08 05 77 6A FFFFFF84 01 78 01 0C 63
   61 6E 42 75 69 6C 64 46 72 6F 6D 15 05 79 FFFFFF81 04
   FFFFFF81 06 10 07 6D 7A 7C FFFFFF81 02 FFFFFF81 07 09 02 7B 6E 02
   0C 43 61 6E 42 75 69 6C 64 46 72 6F 6D 10 02 7D
   7E 0D 01 6A 09 03 7F FFFFFF81 00 02 04 43 6F 6C 6C 09
   03 FFFFFF81 01 6E 02 0A 4D 61 70 46 61 63 74 6F 72 79
   10 06 18 19 FFFFFF81 03 FFFFFF81 05 10 03 1C FFFFFF81 04 04 08 1E
   76 FFFFFF84 FFFFFF80 FFFFFF80 FFFFFFC2 00 1F 10 03 1C FFFFFF81 06 04 08 28 76
   FFFFFF84 FFFFFF80 FFFFFF80 FFFFFFC2 00 1F 10 06 14 00 FFFFFF81 03 FFFFFF81 05 08 06
   3A 6A FFFFFF84 00 FFFFFF81 09 15 06 FFFFFF81 0A FFFFFF81 0C FFFFFF81 0E 10 06
   14 00 FFFFFF81 0B FFFFFF81 0D 10 03 1C FFFFFF81 0C 04 09 1E FFFFFF81 08
   FFFFFF84 FFFFFF80 FFFFFF80 FFFFFFC2 00 1F 10 03 1C FFFFFF81 0E 04 09 28 FFFFFF81 08
   FFFFFF84 FFFFFF80 FFFFFF80 FFFFFFC2 00 1F 06 06 FFFFFF81 10 6A 00 FFFFFF81 11 02 0B
   57 69 74 68 44 65 66 61 75 6C 74 15 06 FFFFFF81 12 FFFFFF81
   15 FFFFFF81 17 13 06 FFFFFF81 0F 0B FFFFFF81 13 30 10 06 14 00 FFFFFF81
   14 FFFFFF81 16 10 03 1C FFFFFF81 15 04 09 1E FFFFFF81 0F FFFFFF84 FFFFFF80 FFFFFF80
   FFFFFFC2 00 1F 10 03 1C FFFFFF81 17 04 09 28 FFFFFF81 0F FFFFFF84 FFFFFF80 FFFFFF84
   FFFFFFC2 00 1F 08 0B FFFFFF81 19 FFFFFF81 0F FFFFFF82 FFFFFF80 FFFFFFA0 FFFFFF80 04 FFFFFF81 13
   01 0A 75 6E 64 65 72 6C 79 69 6E 67 08 0A 5B FFFFFF81
   0F FFFFFF82 FFFFFF80 FFFFFFA0 FFFFFF80 04 FFFFFF81 1B 10 06 18 5D FFFFFF81 14 FFFFFF81 16
   08 07 74 FFFFFF81 0F FFFFFF84 00 FFFFFF81 1D 14 06 FFFFFF81 1E FFFFFF81 1F FFFFFF81
   20 10 07 7D FFFFFF81 0F FFFFFF81 14 FFFFFF81 16 08 08 FFFFFF81 19 FFFFFF81 1C
   FFFFFFC0 00 FFFFFF81 13 08 07 5B FFFFFF81 1C FFFFFFC0 00 FFFFFF81 1B 08 08 FFFFFF81
   22 FFFFFF81 0F FFFFFF84 20 FFFFFF81 23 01 04 73 69 7A 65 15 02 FFFFFF81
   24 10 03 18 FFFFFF81 25 09 03 FFFFFF81 26 06 02 03 49 6E 74
   08 08 FFFFFF81 28 FFFFFF81 0F FFFFFF84 00 FFFFFF81 29 01 03 67 65 74 14
   04 FFFFFF81 2A FFFFFF81 2D 10 05 18 FFFFFF81 2B FFFFFF81 16 09 03 FFFFFF81 2C
   06 02 06 4F 70 74 69 6F 6E 08 07 46 FFFFFF81 27 FFFFFFC0 00
   FFFFFF81 14 08 08 FFFFFF81 2F FFFFFF81 0F FFFFFF84 00 FFFFFF81 30 01 08 69 74
   65 72 61 74 6F 72 15 02 FFFFFF81 31 10 05 2A FFFFFF81 32 FFFFFF81
   34 09 03 FFFFFF81 33 04 02 08 49 74 65 72 61 74 6F 72
   10 06 18 19 FFFFFF81 14 FFFFFF81 16 08 07 3A FFFFFF81 0F FFFFFF84 20 FFFFFF81
   36 15 02 FFFFFF81 1E 08 07 3D FFFFFF81 0F FFFFFF84 20 FFFFFF81 38 15 04
   FFFFFF81 39 FFFFFF81 3C 14 06 FFFFFF81 3A FFFFFF81 3E FFFFFF81 3F 10 07 7D FFFFFF81
   0F FFFFFF81 14 FFFFFF81 3B 10 03 1C FFFFFF81 3C 04 0A 43 FFFFFF81 37 FFFFFF84
   FFFFFF80 FFFFFF80 FFFFFFC2 00 FFFFFF81 3D 11 03 FFFFFF81 16 23 08 07 46 FFFFFF81 37
   FFFFFFC0 00 FFFFFF81 14 08 07 48 FFFFFF81 37 FFFFFFC0 00 FFFFFF81 3B 08 07 4A
   FFFFFF81 0F FFFFFF84 00 FFFFFF81 41 15 04 FFFFFF81 42 FFFFFF81 45 14 04 FFFFFF81 43
   FFFFFF81 46 10 07 7D FFFFFF81 0F FFFFFF81 14 FFFFFF81 44 10 03 1C FFFFFF81 45
   04 0A 43 FFFFFF81 40 FFFFFF84 FFFFFF80 FFFFFF80 FFFFFFC2 00 FFFFFF81 3D 08 07 51 FFFFFF81
   40 FFFFFFC0 00 FFFFFF81 47 10 06 18 19 FFFFFF81 14 FFFFFF81 44 08 08 FFFFFF81
   49 FFFFFF81 0F FFFFFF84 00 FFFFFF81 4A 01 06 24 6D 69 6E 75 73 14
   04 FFFFFF81 1E FFFFFF81 4B 08 07 46 FFFFFF81 48 FFFFFFC0 00 FFFFFF81 14 08 08
   FFFFFF81 4D FFFFFF81 0F FFFFFF84 20 FFFFFF81 4E 01 07 64 65 66 61 75 6C
   74 14 04 FFFFFF81 16 FFFFFF81 4F 08 07 46 FFFFFF81 4C FFFFFFC0 00 FFFFFF81 14
   07 07 FFFFFF81 51 6A FFFFFF88 06 FFFFFF81 52 01 08 45 6D 70 74 79
   4D 61 70 10 03 7D FFFFFF81 53 06 0A FFFFFF81 54 6A FFFFFF84 FFFFFF80 FFFFFF80
   FFFFFF88 06 FFFFFF81 55 02 08 45 6D 70 74 79 4D 61 70 13 06
   FFFFFF81 53 0B FFFFFF81 56 30 10 04 14 00 23 20 08 07 74 FFFFFF81
   53 FFFFFF84 00 FFFFFF81 58 14 02 FFFFFF81 52 08 08 FFFFFF81 22 FFFFFF81 53 FFFFFF84
   20 FFFFFF81 23 08 08 FFFFFF81 28 FFFFFF81 53 FFFFFF84 00 FFFFFF81 5B 14 04 FFFFFF81
   5C FFFFFF81 5D 10 04 18 FFFFFF81 2B 20 08 06 46 FFFFFF81 5A FFFFFFC0 00
   23 08 08 FFFFFF81 2F FFFFFF81 53 FFFFFF84 00 FFFFFF81 5F 15 02 FFFFFF81 60 10
   05 2A FFFFFF81 32 FFFFFF81 61 10 04 18 19 23 20 08 07 3D FFFFFF81
   53 FFFFFF84 20 FFFFFF81 63 15 04 FFFFFF81 64 FFFFFF81 67 14 06 FFFFFF81 65 FFFFFF81
   68 FFFFFF81 69 10 05 14 00 23 FFFFFF81 66 10 03 1C FFFFFF81 67 04
   09 43 FFFFFF81 62 FFFFFF84 FFFFFF80 FFFFFF80 FFFFFFC2 00 1F 08 06 46 FFFFFF81 62 FFFFFFC0
   00 23 08 07 48 FFFFFF81 62 FFFFFFC0 00 FFFFFF81 66 08 07 4A FFFFFF81 53
   FFFFFF84 00 FFFFFF81 6B 15 04 FFFFFF81 6C FFFFFF81 6F 14 04 FFFFFF81 6D FFFFFF81 70
   10 05 14 00 23 FFFFFF81 6E 10 03 1C FFFFFF81 6F 04 09 43 FFFFFF81
   6A FFFFFF84 FFFFFF80 FFFFFF80 FFFFFFC2 00 1F 08 07 51 FFFFFF81 6A FFFFFFC0 00 FFFFFF81 71
   10 05 18 19 23 FFFFFF81 6E 08 08 FFFFFF81 49 FFFFFF81 53 FFFFFF84 00 FFFFFF81
   73 14 04 FFFFFF81 56 FFFFFF81 74 08 06 46 FFFFFF81 72 FFFFFFC0 00 23 08
   0B FFFFFF81 76 FFFFFF81 53 FFFFFF84 FFFFFF80 FFFFFF80 FFFFFF84 08 FFFFFF81 77 01 0B 72 65
   61 64 52 65 73 6F 6C 76 65 14 01 0B 28 04 FFFFFF81 53
   FFFFFF81 79 10 03 18 FFFFFF81 7A 09 03 FFFFFF81 7B 06 02 0C 73 65
   72 69 61 6C 69 7A 61 62 6C 65 28 04 FFFFFF81 50 FFFFFF81 79
   06 06 FFFFFF81 54 6A 00 FFFFFF81 7E 15 06 FFFFFF81 7F FFFFFF82 02 FFFFFF82 04
   13 06 FFFFFF81 7D 0B FFFFFF82 00 30 10 06 14 00 FFFFFF82 01 FFFFFF82 03
   10 03 1C FFFFFF82 02 04 09 1E FFFFFF81 7D FFFFFF84 FFFFFF80 FFFFFF80 FFFFFFC2 00 1F
   10 03 1C FFFFFF82 04 04 09 28 FFFFFF81 7D FFFFFF84 FFFFFF80 FFFFFF80 FFFFFFC2 00 1F
   08 07 74 FFFFFF81 7D FFFFFF84 00 FFFFFF82 06 14 02 FFFFFF82 07 10 07 7D
   FFFFFF81 7D FFFFFF82 01 FFFFFF82 03 08 08 FFFFFF81 22 FFFFFF81 7D FFFFFF84 20 FFFFFF81 23
   08 08 FFFFFF81 28 FFFFFF81 7D FFFFFF84 00 FFFFFF82 0A 14 04 FFFFFF82 0B FFFFFF82 0C
   10 05 18 FFFFFF81 2B FFFFFF82 03 08 07 46 FFFFFF82 09 FFFFFFC0 00 FFFFFF82 01
   08 08 FFFFFF81 2F FFFFFF81 7D FFFFFF84 00 FFFFFF82 0E 15 02 FFFFFF82 0F 10 05
   2A FFFFFF81 32 FFFFFF82 10 10 06 18 19 FFFFFF82 01 FFFFFF82 03 08 07 3D
   FFFFFF81 7D FFFFFF84 20 FFFFFF82 12 15 04 FFFFFF82 13 FFFFFF82 16 14 06 FFFFFF82 14
   FFFFFF82 17 FFFFFF82 18 10 06 14 00 FFFFFF82 01 FFFFFF82 15 10 03 1C FFFFFF82
   16 04 09 43 FFFFFF82 11 FFFFFF84 FFFFFF80 FFFFFF80 FFFFFFC2 00 1F 08 07 46 FFFFFF82
   11 FFFFFFC0 00 FFFFFF82 01 08 07 48 FFFFFF82 11 FFFFFFC0 00 FFFFFF82 15 08 07
   4A FFFFFF81 7D FFFFFF84 00 FFFFFF82 1A 15 04 FFFFFF82 1B FFFFFF82 1E 14 04 FFFFFF82
   1C FFFFFF82 1F 10 06 14 00 FFFFFF82 01 FFFFFF82 1D 10 03 1C FFFFFF82 1E
   04 09 43 FFFFFF82 19 FFFFFF84 FFFFFF80 FFFFFF80 FFFFFFC2 00 1F 08 07 51 FFFFFF82 19
   FFFFFFC0 00 FFFFFF82 20 10 06 18 19 FFFFFF82 01 FFFFFF82 1D 08 08 FFFFFF81 49
   FFFFFF81 7D FFFFFF84 00 FFFFFF82 22 14 04 FFFFFF82 00 FFFFFF82 23 08 07 46 FFFFFF82
   21 FFFFFFC0 00 FFFFFF82 01 28 06 FFFFFF81 7D FFFFFF82 25 FFFFFF82 28 10 03 18
   FFFFFF82 26 09 03 FFFFFF82 27 06 02 0A 64 65 70 72 65 63 61
   74 65 64 21 02 FFFFFF82 29 01 17 75 73 65 20 60 4D 61
   70 2E 65 6D 70 74 79 27 20 69 6E 73 74 65 61 64
   28 04 FFFFFF81 7D FFFFFF81 79 06 06 FFFFFF82 2C 6A 00 FFFFFF82 2D 02 04
   4D 61 70 31 15 06 FFFFFF82 2E FFFFFF82 31 FFFFFF82 33 13 06 FFFFFF82 2B
   0B FFFFFF82 2F 30 10 06 14 00 FFFFFF82 30 FFFFFF82 32 10 03 1C FFFFFF82
   31 04 09 1E FFFFFF82 2B FFFFFF84 FFFFFF80 FFFFFF80 FFFFFFC2 00 1F 10 03 1C FFFFFF82
   33 04 09 28 FFFFFF82 2B FFFFFF84 FFFFFF80 FFFFFF84 FFFFFFC2 00 1F 08 0B FFFFFF82 35
   FFFFFF82 2B FFFFFF82 FFFFFF80 FFFFFFA0 FFFFFF80 04 FFFFFF82 30 01 04 6B 65 79 31 08
   0B FFFFFF82 37 FFFFFF82 2B FFFFFF82 FFFFFF80 FFFFFFA0 FFFFFF80 04 FFFFFF82 32 01 06 76 61
   6C 75 65 31 08 07 74 FFFFFF82 2B FFFFFF84 00 FFFFFF82 39 14 06 FFFFFF82
   3A FFFFFF82 3B FFFFFF82 3C 10 07 7D FFFFFF82 2B FFFFFF82 30 FFFFFF82 32 08 08
   FFFFFF82 35 FFFFFF82 38 FFFFFFC0 00 FFFFFF82 30 08 08 FFFFFF82 37 FFFFFF82 38 FFFFFFC0 00
   FFFFFF82 32 08 08 FFFFFF81 22 FFFFFF82 2B FFFFFF84 20 FFFFFF81 23 08 08 FFFFFF81 28
   FFFFFF82 2B FFFFFF84 00 FFFFFF82 3F 14 04 FFFFFF82 40 FFFFFF82 41 10 05 18 FFFFFF81
   2B FFFFFF82 32 08 07 46 FFFFFF82 3E FFFFFFC0 00 FFFFFF82 30 08 08 FFFFFF81 2F
   FFFFFF82 2B FFFFFF84 00 FFFFFF82 43 15 02 FFFFFF82 44 10 05 2A FFFFFF81 32 FFFFFF82
   45 10 06 18 19 FFFFFF82 30 FFFFFF82 32 08 07 3D FFFFFF82 2B FFFFFF84 20
   FFFFFF82 47 15 04 FFFFFF82 48 FFFFFF82 4B 14 06 FFFFFF82 49 FFFFFF82 4D FFFFFF82 4E
   10 06 14 00 FFFFFF82 30 FFFFFF82 4A 10 03 1C FFFFFF82 4B 04 0A 43
   FFFFFF82 46 FFFFFF84 FFFFFF80 FFFFFF80 FFFFFFC2 00 FFFFFF82 4C 11 03 FFFFFF82 32 23 08 07
   46 FFFFFF82 46 FFFFFFC0 00 FFFFFF82 30 08 07 48 FFFFFF82 46 FFFFFFC0 00 FFFFFF82 4A
   08 07 4A FFFFFF82 2B FFFFFF84 00 FFFFFF82 50 15 04 FFFFFF82 51 FFFFFF82 54 14
   04 FFFFFF82 52 FFFFFF82 55 10 06 14 00 FFFFFF82 30 FFFFFF82 53 10 03 1C
   FFFFFF82 54 04 0A 43 FFFFFF82 4F FFFFFF84 FFFFFF80 FFFFFF80 FFFFFFC2 00 FFFFFF82 4C 08 07
   51 FFFFFF82 4F FFFFFFC0 00 FFFFFF82 56 10 06 18 19 FFFFFF82 30 FFFFFF82 53 08
   08 FFFFFF81 49 FFFFFF82 2B FFFFFF84 00 FFFFFF82 58 14 04 FFFFFF82 2F FFFFFF82 59 08
   07 46 FFFFFF82 57 FFFFFFC0 00 FFFFFF82 30 08 08 FFFFFF82 5B FFFFFF82 2B FFFFFF84 20
   FFFFFF82 5C 01 07 66 6F 72 65 61 63 68 15 04 FFFFFF82 5D FFFFFF82
   62 14 03 36 FFFFFF82 5E 08 08 FFFFFF82 5F FFFFFF82 5A FFFFFFC0 00 FFFFFF82 60
   01 01 66 10 06 18 5D FFFFFF82 45 FFFFFF82 61 10 03 1C FFFFFF82 62
   04 0A FFFFFF82 63 FFFFFF82 5A FFFFFF84 FFFFFF80 FFFFFF80 FFFFFFC2 00 1F 02 01 55 28
   04 FFFFFF82 2B FFFFFF81 79 06 06 FFFFFF82 66 6A 00 FFFFFF82 67 02 04 4D
   61 70 32 15 06 FFFFFF82 68 FFFFFF82 6B FFFFFF82 6D 13 06 FFFFFF82 65 0B
   FFFFFF82 69 30 10 06 14 00 FFFFFF82 6A FFFFFF82 6C 10 03 1C FFFFFF82 6B
   04 09 1E FFFFFF82 65 FFFFFF84 FFFFFF80 FFFFFF80 FFFFFFC2 00 1F 10 03 1C FFFFFF82 6D
   04 09 28 FFFFFF82 65 FFFFFF84 FFFFFF80 FFFFFF84 FFFFFFC2 00 1F 08 0B FFFFFF82 35 FFFFFF82
   65 FFFFFF82 FFFFFF80 FFFFFFA0 FFFFFF80 04 FFFFFF82 6A 08 0B FFFFFF82 37 FFFFFF82 65 FFFFFF82 FFFFFF80
   FFFFFFA0 FFFFFF80 04 FFFFFF82 6C 08 0B FFFFFF82 71 FFFFFF82 65 FFFFFF82 FFFFFF80 FFFFFFA0 FFFFFF80 04
   FFFFFF82 6A 01 04 6B 65 79 32 08 0B FFFFFF82 73 FFFFFF82 65 FFFFFF82 FFFFFF80
   FFFFFFA0 FFFFFF80 04 FFFFFF82 6C 01 06 76 61 6C 75 65 32 08 07 74
   FFFFFF82 65 FFFFFF84 00 FFFFFF82 75 14 0A FFFFFF82 76 FFFFFF82 77 FFFFFF82 78 FFFFFF82 79
   FFFFFF82 7A 10 07 7D FFFFFF82 65 FFFFFF82 6A FFFFFF82 6C 08 08 FFFFFF82 35 FFFFFF82
   74 FFFFFFC0 00 FFFFFF82 6A 08 08 FFFFFF82 37 FFFFFF82 74 FFFFFFC0 00 FFFFFF82 6C 08
   08 FFFFFF82 71 FFFFFF82 74 FFFFFFC0 00 FFFFFF82 6A 08 08 FFFFFF82 73 FFFFFF82 74 FFFFFFC0
   00 FFFFFF82 6C 08 08 FFFFFF81 22 FFFFFF82 65 FFFFFF84 20 FFFFFF81 23 08 08 FFFFFF81
   28 FFFFFF82 65 FFFFFF84 00 FFFFFF82 7D 14 04 FFFFFF82 7E FFFFFF82 7F 10 05 18
   FFFFFF81 2B FFFFFF82 6C 08 07 46 FFFFFF82 7C FFFFFFC0 00 FFFFFF82 6A 08 08 FFFFFF81
   2F FFFFFF82 65 FFFFFF84 00 FFFFFF83 01 15 02 FFFFFF83 02 10 05 2A FFFFFF81 32
   FFFFFF83 03 10 06 18 19 FFFFFF82 6A FFFFFF82 6C 08 07 3D FFFFFF82 65 FFFFFF84
   20 FFFFFF83 05 15 04 FFFFFF83 06 FFFFFF83 09 14 06 FFFFFF83 07 FFFFFF83 0B FFFFFF83
   0C 10 06 14 00 FFFFFF82 6A FFFFFF83 08 10 03 1C FFFFFF83 09 04 0A
   43 FFFFFF83 04 FFFFFF84 FFFFFF80 FFFFFF80 FFFFFFC2 00 FFFFFF83 0A 11 03 FFFFFF82 6C 23 08
   07 46 FFFFFF83 04 FFFFFFC0 00 FFFFFF82 6A 08 07 48 FFFFFF83 04 FFFFFFC0 00 FFFFFF83
   08 08 07 4A FFFFFF82 65 FFFFFF84 00 FFFFFF83 0E 15 04 FFFFFF83 0F FFFFFF83 12
   14 04 FFFFFF83 10 FFFFFF83 13 10 06 14 00 FFFFFF82 6A FFFFFF83 11 10 03
   1C FFFFFF83 12 04 0A 43 FFFFFF83 0D FFFFFF84 FFFFFF80 FFFFFF80 FFFFFFC2 00 FFFFFF83 0A 08
   07 51 FFFFFF83 0D FFFFFFC0 00 FFFFFF83 14 10 06 18 19 FFFFFF82 6A FFFFFF83 11
   08 08 FFFFFF81 49 FFFFFF82 65 FFFFFF84 00 FFFFFF83 16 14 04 FFFFFF82 69 FFFFFF83 17
   08 07 46 FFFFFF83 15 FFFFFFC0 00 FFFFFF82 6A 08 08 FFFFFF82 5B FFFFFF82 65 FFFFFF84
   20 FFFFFF83 19 15 04 FFFFFF83 1A FFFFFF83 1E 14 03 36 FFFFFF83 1B 08 08
   FFFFFF82 5F FFFFFF83 18 FFFFFFC0 00 FFFFFF83 1C 10 06 18 5D FFFFFF83 03 FFFFFF83 1D
   10 03 1C FFFFFF83 1E 04 0A FFFFFF82 63 FFFFFF83 18 FFFFFF84 FFFFFF80 FFFFFF80 FFFFFFC2 00
   1F 28 04 FFFFFF82 65 FFFFFF81 79 06 06 FFFFFF83 21 6A 00 FFFFFF83 22 02
   04 4D 61 70 33 15 06 FFFFFF83 23 FFFFFF83 26 FFFFFF83 28 13 06 FFFFFF83
   20 0B FFFFFF83 24 30 10 06 14 00 FFFFFF83 25 FFFFFF83 27 10 03 1C
   FFFFFF83 26 04 09 1E FFFFFF83 20 FFFFFF84 FFFFFF80 FFFFFF80 FFFFFFC2 00 1F 10 03 1C
   FFFFFF83 28 04 09 28 FFFFFF83 20 FFFFFF84 FFFFFF80 FFFFFF84 FFFFFFC2 00 1F 08 0B FFFFFF82
   35 FFFFFF83 20 FFFFFF82 FFFFFF80 FFFFFFA0 FFFFFF80 04 FFFFFF83 25 08 0B FFFFFF82 37 FFFFFF83 20
   FFFFFF82 FFFFFF80 FFFFFFA0 FFFFFF80 04 FFFFFF83 27 08 0B FFFFFF82 71 FFFFFF83 20 FFFFFF82 FFFFFF80 FFFFFFA0
   FFFFFF80 04 FFFFFF83 25 08 0B FFFFFF82 73 FFFFFF83 20 FFFFFF82 FFFFFF80 FFFFFFA0 FFFFFF80 04 FFFFFF83
   27 08 0B FFFFFF83 2E FFFFFF83 20 FFFFFF82 FFFFFF80 FFFFFFA0 FFFFFF80 04 FFFFFF83 25 01 04
   6B 65 79 33 08 0B FFFFFF83 30 FFFFFF83 20 FFFFFF82 FFFFFF80 FFFFFFA0 FFFFFF80 04 FFFFFF83
   27 01 06 76 61 6C 75 65 33 08 07 74 FFFFFF83 20 FFFFFF84 00
   FFFFFF83 32 14 0E FFFFFF83 33 FFFFFF83 34 FFFFFF83 35 FFFFFF83 36 FFFFFF83 37 FFFFFF83 38
   FFFFFF83 39 10 07 7D FFFFFF83 20 FFFFFF83 25 FFFFFF83 27 08 08 FFFFFF82 35 FFFFFF83
   31 FFFFFFC0 00 FFFFFF83 25 08 08 FFFFFF82 37 FFFFFF83 31 FFFFFFC0 00 FFFFFF83 27 08
   08 FFFFFF82 71 FFFFFF83 31 FFFFFFC0 00 FFFFFF83 25 08 08 FFFFFF82 73 FFFFFF83 31 FFFFFFC0
   00 FFFFFF83 27 08 08 FFFFFF83 2E FFFFFF83 31 FFFFFFC0 00 FFFFFF83 25 08 08 FFFFFF83
   30 FFFFFF83 31 FFFFFFC0 00 FFFFFF83 27 08 08 FFFFFF81 22 FFFFFF83 20 FFFFFF84 20 FFFFFF81
   23 08 08 FFFFFF81 28 FFFFFF83 20 FFFFFF84 00 FFFFFF83 3C 14 04 FFFFFF83 3D FFFFFF83
   3E 10 05 18 FFFFFF81 2B FFFFFF83 27 08 07 46 FFFFFF83 3B FFFFFFC0 00 FFFFFF83
   25 08 08 FFFFFF81 2F FFFFFF83 20 FFFFFF84 00 FFFFFF83 40 15 02 FFFFFF83 41 10
   05 2A FFFFFF81 32 FFFFFF83 42 10 06 18 19 FFFFFF83 25 FFFFFF83 27 08 07
   3D FFFFFF83 20 FFFFFF84 20 FFFFFF83 44 15 04 FFFFFF83 45 FFFFFF83 48 14 06 FFFFFF83
   46 FFFFFF83 4A FFFFFF83 4B 10 06 14 00 FFFFFF83 25 FFFFFF83 47 10 03 1C
   FFFFFF83 48 04 0A 43 FFFFFF83 43 FFFFFF84 FFFFFF80 FFFFFF80 FFFFFFC2 00 FFFFFF83 49 11 03
   FFFFFF83 27 23 08 07 46 FFFFFF83 43 FFFFFFC0 00 FFFFFF83 25 08 07 48 FFFFFF83
   43 FFFFFFC0 00 FFFFFF83 47 08 07 4A FFFFFF83 20 FFFFFF84 00 FFFFFF83 4D 15 04
   FFFFFF83 4E FFFFFF83 51 14 04 FFFFFF83 4F FFFFFF83 52 10 06 14 00 FFFFFF83 25
   FFFFFF83 50 10 03 1C FFFFFF83 51 04 0A 43 FFFFFF83 4C FFFFFF84 FFFFFF80 FFFFFF80 FFFFFFC2
   00 FFFFFF83 49 08 07 51 FFFFFF83 4C FFFFFFC0 00 FFFFFF83 53 10 06 18 19
   FFFFFF83 25 FFFFFF83 50 08 08 FFFFFF81 49 FFFFFF83 20 FFFFFF84 00 FFFFFF83 55 14 04
   FFFFFF83 24 FFFFFF83 56 08 07 46 FFFFFF83 54 FFFFFFC0 00 FFFFFF83 25 08 08 FFFFFF82
   5B FFFFFF83 20 FFFFFF84 20 FFFFFF83 58 15 04 FFFFFF83 59 FFFFFF83 5D 14 03 36
   FFFFFF83 5A 08 08 FFFFFF82 5F FFFFFF83 57 FFFFFFC0 00 FFFFFF83 5B 10 06 18 5D
   FFFFFF83 42 FFFFFF83 5C 10 03 1C FFFFFF83 5D 04 0A FFFFFF82 63 FFFFFF83 57 FFFFFF84
   FFFFFF80 FFFFFF80 FFFFFFC2 00 1F 28 04 FFFFFF83 20 FFFFFF81 79 06 06 FFFFFF83 60 6A
   00 FFFFFF83 61 02 04 4D 61 70 34 15 06 FFFFFF83 62 FFFFFF83 65 FFFFFF83
   67 13 06 FFFFFF83 5F 0B FFFFFF83 63 30 10 06 14 00 FFFFFF83 64 FFFFFF83
   66 10 03 1C FFFFFF83 65 04 09 1E FFFFFF83 5F FFFFFF84 FFFFFF80 FFFFFF80 FFFFFFC2 00
   1F 10 03 1C FFFFFF83 67 04 09 28 FFFFFF83 5F FFFFFF84 FFFFFF80 FFFFFF84 FFFFFFC2 00
   1F 08 0B FFFFFF82 35 FFFFFF83 5F FFFFFF82 FFFFFF80 FFFFFFA0 FFFFFF80 04 FFFFFF83 64 08 0B
   FFFFFF82 37 FFFFFF83 5F FFFFFF82 FFFFFF80 FFFFFFA0 FFFFFF80 04 FFFFFF83 66 08 0B FFFFFF82 71 FFFFFF83
   5F FFFFFF82 FFFFFF80 FFFFFFA0 FFFFFF80 04 FFFFFF83 64 08 0B FFFFFF82 73 FFFFFF83 5F FFFFFF82 FFFFFF80
   FFFFFFA0 FFFFFF80 04 FFFFFF83 66 08 0B FFFFFF83 2E FFFFFF83 5F FFFFFF82 FFFFFF80 FFFFFFA0 FFFFFF80 04
   FFFFFF83 64 08 0B FFFFFF83 30 FFFFFF83 5F FFFFFF82 FFFFFF80 FFFFFFA0 FFFFFF80 04 FFFFFF83 66 08
   0B FFFFFF83 6F FFFFFF83 5F FFFFFF82 FFFFFF80 FFFFFFA0 FFFFFF80 04 FFFFFF83 64 01 04 6B 65
   79 34 08 0B FFFFFF83 71 FFFFFF83 5F FFFFFF82 FFFFFF80 FFFFFFA0 FFFFFF80 04 FFFFFF83 66 01
   06 76 61 6C 75 65 34 08 07 74 FFFFFF83 5F FFFFFF84 00 FFFFFF83 73
   14 12 FFFFFF83 74 FFFFFF83 75 FFFFFF83 76 FFFFFF83 77 FFFFFF83 78 FFFFFF83 79 FFFFFF83 7A
   FFFFFF83 7B FFFFFF83 7C 10 07 7D FFFFFF83 5F FFFFFF83 64 FFFFFF83 66 08 08 FFFFFF82
   35 FFFFFF83 72 FFFFFFC0 00 FFFFFF83 64 08 08 FFFFFF82 37 FFFFFF83 72 FFFFFFC0 00 FFFFFF83
   66 08 08 FFFFFF82 71 FFFFFF83 72 FFFFFFC0 00 FFFFFF83 64 08 08 FFFFFF82 73 FFFFFF83
   72 FFFFFFC0 00 FFFFFF83 66 08 08 FFFFFF83 2E FFFFFF83 72 FFFFFFC0 00 FFFFFF83 64 08
   08 FFFFFF83 30 FFFFFF83 72 FFFFFFC0 00 FFFFFF83 66 08 08 FFFFFF83 6F FFFFFF83 72 FFFFFFC0
   00 FFFFFF83 64 08 08 FFFFFF83 71 FFFFFF83 72 FFFFFFC0 00 FFFFFF83 66 08 08 FFFFFF81
   22 FFFFFF83 5F FFFFFF84 20 FFFFFF81 23 08 08 FFFFFF81 28 FFFFFF83 5F FFFFFF84 00 FFFFFF83
   7F 14 04 FFFFFF84 00 FFFFFF84 01 10 05 18 FFFFFF81 2B FFFFFF83 66 08 07
   46 FFFFFF83 7E FFFFFFC0 00 FFFFFF83 64 08 08 FFFFFF81 2F FFFFFF83 5F FFFFFF84 00 FFFFFF84
   03 15 02 FFFFFF84 04 10 05 2A FFFFFF81 32 FFFFFF84 05 10 06 18 19
   FFFFFF83 64 FFFFFF83 66 08 07 3D FFFFFF83 5F FFFFFF84 20 FFFFFF84 07 15 04 FFFFFF84
   08 FFFFFF84 0B 14 06 FFFFFF84 09 FFFFFF84 0D FFFFFF84 0E 10 06 14 00 FFFFFF83
   64 FFFFFF84 0A 10 03 1C FFFFFF84 0B 04 0A 43 FFFFFF84 06 FFFFFF84 FFFFFF80 FFFFFF80
   FFFFFFC2 00 FFFFFF84 0C 11 03 FFFFFF83 66 23 08 07 46 FFFFFF84 06 FFFFFFC0 00
   FFFFFF83 64 08 07 48 FFFFFF84 06 FFFFFFC0 00 FFFFFF84 0A 08 07 4A FFFFFF83 5F
   FFFFFF84 00 FFFFFF84 10 15 04 FFFFFF84 11 FFFFFF84 14 14 04 FFFFFF84 12 FFFFFF84 15
   10 06 14 00 FFFFFF83 64 FFFFFF84 13 10 03 1C FFFFFF84 14 04 0A 43
   FFFFFF84 0F FFFFFF84 FFFFFF80 FFFFFF80 FFFFFFC2 00 FFFFFF84 0C 08 07 51 FFFFFF84 0F FFFFFFC0 00
   FFFFFF84 16 10 06 18 19 FFFFFF83 64 FFFFFF84 13 08 08 FFFFFF81 49 FFFFFF83 5F
   FFFFFF84 00 FFFFFF84 18 14 04 FFFFFF83 63 FFFFFF84 19 08 07 46 FFFFFF84 17 FFFFFFC0
   00 FFFFFF83 64 08 08 FFFFFF82 5B FFFFFF83 5F FFFFFF84 20 FFFFFF84 1B 15 04 FFFFFF84
   1C FFFFFF84 20 14 03 36 FFFFFF84 1D 08 08 FFFFFF82 5F FFFFFF84 1A FFFFFFC0 00
   FFFFFF84 1E 10 06 18 5D FFFFFF84 05 FFFFFF84 1F 10 03 1C FFFFFF84 20 04
   0A FFFFFF82 63 FFFFFF84 1A FFFFFF84 FFFFFF80 FFFFFF80 FFFFFFC2 00 1F 28 04 FFFFFF83 5F FFFFFF81
   79 
  InnerClass: 
   public Map4=class scala/collection/immutable/Map$Map4 of class scala/collection/immutable/Map
   public Map3=class scala/collection/immutable/Map$Map3 of class scala/collection/immutable/Map
   public Map2=class scala/collection/immutable/Map$Map2 of class scala/collection/immutable/Map
   public Map1=class scala/collection/immutable/Map$Map1 of class scala/collection/immutable/Map
   public EmptyMap=class scala/collection/immutable/Map$EmptyMap of class scala/collection/immutable/Map
   public WithDefault=class scala/collection/immutable/Map$WithDefault of class scala/collection/immutable/Map
   public final $anonfun$withDefaultValue$1=class scala/collection/immutable/Map$$anonfun$withDefaultValue$1 of class scala/collection/immutable/Map
  minor version: 0
  major version: 49
  Constant pool:
Asciz	SourceFile;
Asciz	Map.scala;
Asciz	empty;
Asciz	()Lscala/collection/immutable/Map;;
Asciz	()Lscala/collection/immutable/Map<TA;TB;>;;
Asciz	Signature;
Asciz	updated;
Asciz	(Ljava/lang/Object;Ljava/lang/Object;)Lscala/collection/immutable/Map;;
Asciz	<B1:Ljava/lang/Object;>(TA;TB1;)Lscala/collection/immutable/Map<TA;TB1;>;;
Asciz	$plus;
Asciz	(Lscala/Tuple2;)Lscala/collection/immutable/Map;;
Asciz	<B1:Ljava/lang/Object;>(Lscala/Tuple2<TA;TB1;>;)Lscala/collection/immutable/Map<TA;TB1;>;;
Asciz	withDefault;
Asciz	(Lscala/Function1;)Lscala/collection/immutable/Map;;
Asciz	<B1:Ljava/lang/Object;>(Lscala/Function1<TA;TB1;>;)Lscala/collection/immutable/Map<TA;TB1;>;;
Asciz	withDefaultValue;
Asciz	(Ljava/lang/Object;)Lscala/collection/immutable/Map;;
Asciz	<B1:Ljava/lang/Object;>(TB1;)Lscala/collection/immutable/Map<TA;TB1;>;;
Asciz	<A:Ljava/lang/Object;B:Ljava/lang/Object;>Ljava/lang/Object;Lscala/collection/immutable/Iterable<Lscala/Tuple2<TA;TB;>;>;Lscala/collection/Map<TA;TB;>;Lscala/collection/immutable/MapLike<TA;TB;Lscala/collection/immutable/Map<TA;TB;>;>;Lscala/ScalaObject;;
Asciz	ScalaSig;
Asciz	InnerClasses;
Asciz	scala/collection/immutable/Map$Map4;
class	scala/collection/immutable/Map$Map4
Asciz	scala/collection/immutable/Map;
class	scala/collection/immutable/Map
Asciz	Map4;
Asciz	scala/collection/immutable/Map$Map3;
class	scala/collection/immutable/Map$Map3
Asciz	Map3;
Asciz	scala/collection/immutable/Map$Map2;
class	scala/collection/immutable/Map$Map2
Asciz	Map2;
Asciz	scala/collection/immutable/Map$Map1;
class	scala/collection/immutable/Map$Map1
Asciz	Map1;
Asciz	scala/collection/immutable/Map$EmptyMap;
class	scala/collection/immutable/Map$EmptyMap
Asciz	EmptyMap;
Asciz	scala/collection/immutable/Map$WithDefault;
class	scala/collection/immutable/Map$WithDefault
Asciz	WithDefault;
Asciz	scala/collection/immutable/Map$$anonfun$withDefaultValue$1;
class	scala/collection/immutable/Map$$anonfun$withDefaultValue$1
Asciz	$anonfun$withDefaultValue$1;
Asciz	java/lang/Object;
class	java/lang/Object
Asciz	scala/collection/immutable/Iterable;
class	scala/collection/immutable/Iterable
Asciz	scala/collection/Map;
class	scala/collection/Map
Asciz	scala/collection/immutable/MapLike;
class	scala/collection/immutable/MapLike
Asciz	scala/ScalaObject;
class	scala/ScalaObject

{
public abstract scala.collection.immutable.Map empty();
  Signature: ()Lscala/collection/immutable/Map;
  Signature: length = 0x2
   00 05 

public abstract scala.collection.immutable.Map updated(java.lang.Object, java.lang.Object);
  Signature: (Ljava/lang/Object;Ljava/lang/Object;)Lscala/collection/immutable/Map;
  Signature: length = 0x2
   00 09 

public abstract scala.collection.immutable.Map $plus(scala.Tuple2);
  Signature: (Lscala/Tuple2;)Lscala/collection/immutable/Map;
  Signature: length = 0x2
   00 0C 

public abstract scala.collection.immutable.Map withDefault(scala.Function1);
  Signature: (Lscala/Function1;)Lscala/collection/immutable/Map;
  Signature: length = 0x2
   00 0F 

public abstract scala.collection.immutable.Map withDefaultValue(java.lang.Object);
  Signature: (Ljava/lang/Object;)Lscala/collection/immutable/Map;
  Signature: length = 0x2
   00 12 

}

