Compiled from "Map.scala"
public interface scala.collection.immutable.Map extends scala.collection.immutable.Iterable,scala.collection.Map,scala.collection.immutable.MapLike,scala.ScalaObject
  SourceFile: "Map.scala"
  Signature: length = 0x2
   00 13 
  ScalaSig: length = 0xF2F
   05 00 FFFFFF83 74 06 07 01 02 FFFFFF90 FFFFFF80 FFFFFF81 00 09 02 03 4D
   61 70 0A 02 03 04 01 09 69 6D 6D 75 74 61 62 6C
   65 0A 02 05 06 01 0A 63 6F 6C 6C 65 63 74 69 6F
   6E 0A 01 07 01 05 73 63 61 6C 61 03 00 15 03 0A
   1D 27 13 06 00 0B 13 29 2C 30 10 02 0C 11 0D 01
   0D 0A 02 0E 0F 01 04 6C 61 6E 67 0A 01 10 01 04
   6A 61 76 61 09 02 12 0D 02 06 4F 62 6A 65 63 74
   10 03 14 15 17 0D 01 02 09 02 16 02 02 08 49 74
   65 72 61 62 6C 65 10 04 18 19 1B 26 0D 01 06 09
   02 1A 06 02 06 54 75 70 6C 65 32 10 02 1C 1D 0C
   00 04 08 1E 00 FFFFFF84 FFFFFF80 FFFFFF80 FFFFFFC2 00 1F 02 01 41 11 02
   20 23 10 02 18 21 09 02 22 06 02 07 4E 6F 74 68
   69 6E 67 10 02 18 24 09 02 25 06 02 03 41 6E 79
   10 02 1C 27 04 08 28 00 FFFFFF84 FFFFFF80 FFFFFF84 FFFFFFC2 00 1F 02 01
   42 10 04 2A 2B 1B 26 0D 01 04 09 02 01 04 10 05
   14 2D 1B 26 2F 09 02 2E 02 02 07 4D 61 70 4C 69
   6B 65 10 04 14 00 1B 26 10 02 18 31 09 02 32 06
   02 0B 53 63 61 6C 61 4F 62 6A 65 63 74 08 05 34
   00 FFFFFF84 00 35 01 06 24 69 6E 69 74 24 14 01 36 10
   02 18 37 09 02 38 06 02 04 55 6E 69 74 08 05 3A
   00 FFFFFF84 20 3B 01 05 65 6D 70 74 79 15 01 2F 08 05
   3D 00 FFFFFF86 20 3E 01 07 75 70 64 61 74 65 64 15 02
   3F 42 14 03 40 45 47 10 04 14 00 1B 41 10 02 1C
   42 04 08 43 3C FFFFFF84 FFFFFF80 FFFFFF80 FFFFFFC2 00 44 02 02 42 31 11
   02 26 23 08 05 46 3C FFFFFFC0 00 1B 01 03 6B 65 79 08
   05 48 3C FFFFFFC0 00 41 01 05 76 61 6C 75 65 08 05 4A
   00 FFFFFF86 00 4B 01 05 24 70 6C 75 73 15 02 4C 4F 14
   02 4D 50 10 04 14 00 1B 4E 10 02 1C 4F 04 08 43
   49 FFFFFF84 FFFFFF80 FFFFFF80 FFFFFFC2 00 44 08 05 51 49 FFFFFFC0 00 52 01 02
   6B 76 10 04 18 19 1B 4E 08 05 54 00 FFFFFF84 00 55 01
   0B 77 69 74 68 44 65 66 61 75 6C 74 15 02 56 59
   14 02 57 5A 10 04 14 00 1B 58 10 02 1C 59 04 08
   43 53 FFFFFF84 FFFFFF80 FFFFFF80 FFFFFFC2 00 44 08 05 5B 53 FFFFFFC0 00 5C 01
   01 64 10 04 18 5D 1B 58 09 02 5E 06 02 09 46 75
   6E 63 74 69 6F 6E 31 08 05 60 00 FFFFFF84 00 61 01 10
   77 69 74 68 44 65 66 61 75 6C 74 56 61 6C 75 65
   15 02 62 65 14 02 63 66 10 04 14 00 1B 64 10 02
   1C 65 04 08 43 5F FFFFFF84 FFFFFF80 FFFFFF80 FFFFFFC2 00 44 08 05 5B 5F
   FFFFFFC0 00 64 07 05 68 02 FFFFFF88 02 69 01 03 4D 61 70 10
   02 14 6A 06 08 01 02 FFFFFF84 FFFFFF80 FFFFFF80 FFFFFF88 02 6B 13 03 6A
   6C 30 10 03 6D 70 72 0D 01 6E 0A 02 6F 04 01 07
   67 65 6E 65 72 69 63 09 02 71 6E 02 13 49 6D 6D
   75 74 61 62 6C 65 4D 61 70 46 61 63 74 6F 72 79
   10 02 14 00 08 05 74 6A FFFFFF84 00 75 01 06 3C 69 6E
   69 74 3E 14 01 69 08 05 77 6A FFFFFF84 01 78 01 0C 63
   61 6E 42 75 69 6C 64 46 72 6F 6D 15 05 79 FFFFFF81 04
   FFFFFF81 06 10 07 6D 7A 7C FFFFFF81 02 FFFFFF81 07 09 02 7B 6E 02
   0C 43 61 6E 42 75 69 6C 64 46 72 6F 6D 10 02 7D
   7E 0D 01 6A 09 03 7F FFFFFF81 00 02 04 43 6F 6C 6C 09
   03 FFFFFF81 01 6E 02 0A 4D 61 70 46 61 63 74 6F 72 79
   10 06 18 19 FFFFFF81 03 FFFFFF81 05 10 03 1C FFFFFF81 04 04 08 1E
   76 FFFFFF84 FFFFFF80 FFFFFF80 FFFFFFC2 00 1F 10 03 1C FFFFFF81 06 04 08 28 76
   FFFFFF84 FFFFFF80 FFFFFF80 FFFFFFC2 00 1F 10 06 14 00 FFFFFF81 03 FFFFFF81 05 08 06
   3A 6A FFFFFF84 00 FFFFFF81 09 15 06 FFFFFF81 0A FFFFFF81 0C FFFFFF81 0E 10 06
   14 00 FFFFFF81 0B FFFFFF81 0D 10 03 1C FFFFFF81 0C 04 09 1E FFFFFF81 08
   FFFFFF84 FFFFFF80 FFFFFF80 FFFFFFC2 00 1F 10 03 1C FFFFFF81 0E 04 09 28 FFFFFF81 08
   FFFFFF84 FFFFFF80 FFFFFF80 FFFFFFC2 00 1F 06 06 FFFFFF81 10 6A 00 FFFFFF81 11 02 0B
   57 69 74 68 44 65 66 61 75 6C 74 15 06 FFFFFF81 12 FFFFFF81
   15 FFFFFF81 17 13 06 FFFFFF81 0F 0B FFFFFF81 13 30 10 06 14 00 FFFFFF81
   14 FFFFFF81 16 10 03 1C FFFFFF81 15 04 09 1E FFFFFF81 0F FFFFFF84 FFFFFF80 FFFFFF80
   FFFFFFC2 00 1F 10 03 1C FFFFFF81 17 04 09 28 FFFFFF81 0F FFFFFF84 FFFFFF80 FFFFFF84
   FFFFFFC2 00 1F 08 0B FFFFFF81 19 FFFFFF81 0F FFFFFF82 FFFFFF80 FFFFFFA0 FFFFFF80 04 FFFFFF81 13
   01 0A 75 6E 64 65 72 6C 79 69 6E 67 08 0A 5B FFFFFF81
   0F FFFFFF82 FFFFFF80 FFFFFFA0 FFFFFF80 04 FFFFFF81 1B 10 06 18 5D FFFFFF81 14 FFFFFF81 16
   08 07 74 FFFFFF81 0F FFFFFF84 00 FFFFFF81 1D 14 06 FFFFFF81 1E FFFFFF81 1F FFFFFF81
   20 10 07 7D FFFFFF81 0F FFFFFF81 14 FFFFFF81 16 08 08 FFFFFF81 19 FFFFFF81 1C
   FFFFFFC0 00 FFFFFF81 13 08 07 5B FFFFFF81 1C FFFFFFC0 00 FFFFFF81 1B 08 08 FFFFFF81
   22 FFFFFF81 0F FFFFFF84 20 FFFFFF81 23 01 04 73 69 7A 65 15 02 FFFFFF81
   24 10 03 18 FFFFFF81 25 09 03 FFFFFF81 26 06 02 03 49 6E 74
   08 08 FFFFFF81 28 FFFFFF81 0F FFFFFF84 00 FFFFFF81 29 01 03 67 65 74 14
   04 FFFFFF81 2A FFFFFF81 2D 10 05 18 FFFFFF81 2B FFFFFF81 16 09 03 FFFFFF81 2C
   06 02 06 4F 70 74 69 6F 6E 08 07 46 FFFFFF81 27 FFFFFFC0 00
   FFFFFF81 14 08 08 FFFFFF81 2F FFFFFF81 0F FFFFFF84 00 FFFFFF81 30 01 08 69 74
   65 72 61 74 6F 72 15 02 FFFFFF81 31 10 05 2A FFFFFF81 32 FFFFFF81
   34 09 03 FFFFFF81 33 04 02 08 49 74 65 72 61 74 6F 72
   10 06 18 19 FFFFFF81 14 FFFFFF81 16 08 07 3A FFFFFF81 0F FFFFFF84 20 FFFFFF81
   36 15 02 FFFFFF81 1E 08 07 3D FFFFFF81 0F FFFFFF84 20 FFFFFF81 38 15 04
   FFFFFF81 39 FFFFFF81 3C 14 06 FFFFFF81 3A FFFFFF81 3E FFFFFF81 3F 10 07 7D FFFFFF81
   0F FFFFFF81 14 FFFFFF81 3B 10 03 1C FFFFFF81 3C 04 0A 43 FFFFFF81 37 FFFFFF84
   FFFFFF80 FFFFFF80 FFFFFFC2 00 FFFFFF81 3D 11 03 FFFFFF81 16 23 08 07 46 FFFFFF81 37
   FFFFFFC0 00 FFFFFF81 14 08 07 48 FFFFFF81 37 FFFFFFC0 00 FFFFFF81 3B 08 07 4A
   FFFFFF81 0F FFFFFF84 00 FFFFFF81 41 15 04 FFFFFF81 42 FFFFFF81 45 14 04 FFFFFF81 43
   FFFFFF81 46 10 07 7D FFFFFF81 0F FFFFFF81 14 FFFFFF81 44 10 03 1C FFFFFF81 45
   04 0A 43 FFFFFF81 40 FFFFFF84 FFFFFF80 FFFFFF80 FFFFFFC2 00 FFFFFF81 3D 08 07 51 FFFFFF81
   40 FFFFFFC0 00 FFFFFF81 47 10 06 18 19 FFFFFF81 14 FFFFFF81 44 08 08 FFFFFF81
   49 FFFFFF81 0F FFFFFF84 00 FFFFFF81 4A 01 06 24 6D 69 6E 75 73 14
   04 FFFFFF81 1E FFFFFF81 4B 08 07 46 FFFFFF81 48 FFFFFFC0 00 FFFFFF81 14 08 08
   FFFFFF81 4D FFFFFF81 0F FFFFFF84 20 FFFFFF81 4E 01 07 64 65 66 61 75 6C
   74 14 04 FFFFFF81 16 FFFFFF81 4F 08 07 46 FFFFFF81 4C FFFFFFC0 00 FFFFFF81 14
   06 06 FFFFFF81 51 6A 00 FFFFFF81 52 02 08 45 6D 70 74 79 4D
   61 70 15 06 FFFFFF81 53 FFFFFF81 56 FFFFFF81 58 13 06 FFFFFF81 50 0B FFFFFF81
   54 30 10 06 14 00 FFFFFF81 55 FFFFFF81 57 10 03 1C FFFFFF81 56 04
   09 1E FFFFFF81 50 FFFFFF84 FFFFFF80 FFFFFF80 FFFFFFC2 00 1F 10 03 1C FFFFFF81 58 04
   09 28 FFFFFF81 50 FFFFFF84 FFFFFF80 FFFFFF84 FFFFFFC2 00 1F 08 07 74 FFFFFF81 50 FFFFFF84
   00 FFFFFF81 5A 14 02 FFFFFF81 5B 10 07 7D FFFFFF81 50 FFFFFF81 55 FFFFFF81 57
   08 08 FFFFFF81 22 FFFFFF81 50 FFFFFF84 20 FFFFFF81 23 08 08 FFFFFF81 28 FFFFFF81 50
   FFFFFF84 00 FFFFFF81 5E 14 04 FFFFFF81 5F FFFFFF81 60 10 05 18 FFFFFF81 2B FFFFFF81
   57 08 07 46 FFFFFF81 5D FFFFFFC0 00 FFFFFF81 55 08 08 FFFFFF81 2F FFFFFF81 50
   FFFFFF84 00 FFFFFF81 62 15 02 FFFFFF81 63 10 05 2A FFFFFF81 32 FFFFFF81 64 10
   06 18 19 FFFFFF81 55 FFFFFF81 57 08 07 3D FFFFFF81 50 FFFFFF84 20 FFFFFF81 66
   15 04 FFFFFF81 67 FFFFFF81 6A 14 06 FFFFFF81 68 FFFFFF81 6C FFFFFF81 6D 10 06
   14 00 FFFFFF81 55 FFFFFF81 69 10 03 1C FFFFFF81 6A 04 0A 43 FFFFFF81 65
   FFFFFF84 FFFFFF80 FFFFFF80 FFFFFFC2 00 FFFFFF81 6B 11 03 FFFFFF81 57 23 08 07 46 FFFFFF81
   65 FFFFFFC0 00 FFFFFF81 55 08 07 48 FFFFFF81 65 FFFFFFC0 00 FFFFFF81 69 08 07
   4A FFFFFF81 50 FFFFFF84 00 FFFFFF81 6F 15 04 FFFFFF81 70 FFFFFF81 73 14 04 FFFFFF81
   71 FFFFFF81 74 10 06 14 00 FFFFFF81 55 FFFFFF81 72 10 03 1C FFFFFF81 73
   04 0A 43 FFFFFF81 6E FFFFFF84 FFFFFF80 FFFFFF80 FFFFFFC2 00 FFFFFF81 6B 08 07 51 FFFFFF81
   6E FFFFFFC0 00 FFFFFF81 75 10 06 18 19 FFFFFF81 55 FFFFFF81 72 08 08 FFFFFF81
   49 FFFFFF81 50 FFFFFF84 00 FFFFFF81 77 14 04 FFFFFF81 54 FFFFFF81 78 08 07 46
   FFFFFF81 76 FFFFFFC0 00 FFFFFF81 55 28 04 FFFFFF81 50 FFFFFF81 7A 10 03 18 FFFFFF81
   7B 09 03 FFFFFF81 7C 06 02 0C 73 65 72 69 61 6C 69 7A
   61 62 6C 65 06 06 FFFFFF81 7E 6A 00 FFFFFF81 7F 02 04 4D 61
   70 31 15 06 FFFFFF82 00 FFFFFF82 03 FFFFFF82 05 13 06 FFFFFF81 7D 0B FFFFFF82
   01 30 10 06 14 00 FFFFFF82 02 FFFFFF82 04 10 03 1C FFFFFF82 03 04
   09 1E FFFFFF81 7D FFFFFF84 FFFFFF80 FFFFFF80 FFFFFFC2 00 1F 10 03 1C FFFFFF82 05 04
   09 28 FFFFFF81 7D FFFFFF84 FFFFFF80 FFFFFF84 FFFFFFC2 00 1F 08 0B FFFFFF82 07 FFFFFF81 7D
   FFFFFF82 FFFFFF80 FFFFFFA0 FFFFFF80 04 FFFFFF82 02 01 04 6B 65 79 31 08 0B FFFFFF82
   09 FFFFFF81 7D FFFFFF82 FFFFFF80 FFFFFFA0 FFFFFF80 04 FFFFFF82 04 01 06 76 61 6C 75
   65 31 08 07 74 FFFFFF81 7D FFFFFF84 00 FFFFFF82 0B 14 06 FFFFFF82 0C FFFFFF82
   0D FFFFFF82 0E 10 07 7D FFFFFF81 7D FFFFFF82 02 FFFFFF82 04 08 08 FFFFFF82 07
   FFFFFF82 0A FFFFFFC0 00 FFFFFF82 02 08 08 FFFFFF82 09 FFFFFF82 0A FFFFFFC0 00 FFFFFF82 04
   08 08 FFFFFF81 22 FFFFFF81 7D FFFFFF84 20 FFFFFF81 23 08 08 FFFFFF81 28 FFFFFF81 7D
   FFFFFF84 00 FFFFFF82 11 14 04 FFFFFF82 12 FFFFFF82 13 10 05 18 FFFFFF81 2B FFFFFF82
   04 08 07 46 FFFFFF82 10 FFFFFFC0 00 FFFFFF82 02 08 08 FFFFFF81 2F FFFFFF81 7D
   FFFFFF84 00 FFFFFF82 15 15 02 FFFFFF82 16 10 05 2A FFFFFF81 32 FFFFFF82 17 10
   06 18 19 FFFFFF82 02 FFFFFF82 04 08 07 3D FFFFFF81 7D FFFFFF84 20 FFFFFF82 19
   15 04 FFFFFF82 1A FFFFFF82 1D 14 06 FFFFFF82 1B FFFFFF82 1F FFFFFF82 20 10 06
   14 00 FFFFFF82 02 FFFFFF82 1C 10 03 1C FFFFFF82 1D 04 0A 43 FFFFFF82 18
   FFFFFF84 FFFFFF80 FFFFFF80 FFFFFFC2 00 FFFFFF82 1E 11 03 FFFFFF82 04 23 08 07 46 FFFFFF82
   18 FFFFFFC0 00 FFFFFF82 02 08 07 48 FFFFFF82 18 FFFFFFC0 00 FFFFFF82 1C 08 07
   4A FFFFFF81 7D FFFFFF84 00 FFFFFF82 22 15 04 FFFFFF82 23 FFFFFF82 26 14 04 FFFFFF82
   24 FFFFFF82 27 10 06 14 00 FFFFFF82 02 FFFFFF82 25 10 03 1C FFFFFF82 26
   04 0A 43 FFFFFF82 21 FFFFFF84 FFFFFF80 FFFFFF80 FFFFFFC2 00 FFFFFF82 1E 08 07 51 FFFFFF82
   21 FFFFFFC0 00 FFFFFF82 28 10 06 18 19 FFFFFF82 02 FFFFFF82 25 08 08 FFFFFF81
   49 FFFFFF81 7D FFFFFF84 00 FFFFFF82 2A 14 04 FFFFFF82 01 FFFFFF82 2B 08 07 46
   FFFFFF82 29 FFFFFFC0 00 FFFFFF82 02 08 08 FFFFFF82 2D FFFFFF81 7D FFFFFF84 20 FFFFFF82 2E
   01 07 66 6F 72 65 61 63 68 15 04 FFFFFF82 2F FFFFFF82 34 14
   03 36 FFFFFF82 30 08 08 FFFFFF82 31 FFFFFF82 2C FFFFFFC0 00 FFFFFF82 32 01 01
   66 10 06 18 5D FFFFFF82 17 FFFFFF82 33 10 03 1C FFFFFF82 34 04 0A
   FFFFFF82 35 FFFFFF82 2C FFFFFF84 FFFFFF80 FFFFFF80 FFFFFFC2 00 1F 02 01 55 28 04 FFFFFF81
   7D FFFFFF81 7A 06 06 FFFFFF82 38 6A 00 FFFFFF82 39 02 04 4D 61 70
   32 15 06 FFFFFF82 3A FFFFFF82 3D FFFFFF82 3F 13 06 FFFFFF82 37 0B FFFFFF82 3B
   30 10 06 14 00 FFFFFF82 3C FFFFFF82 3E 10 03 1C FFFFFF82 3D 04 09
   1E FFFFFF82 37 FFFFFF84 FFFFFF80 FFFFFF80 FFFFFFC2 00 1F 10 03 1C FFFFFF82 3F 04 09
   28 FFFFFF82 37 FFFFFF84 FFFFFF80 FFFFFF84 FFFFFFC2 00 1F 08 0B FFFFFF82 07 FFFFFF82 37 FFFFFF82
   FFFFFF80 FFFFFFA0 FFFFFF80 04 FFFFFF82 3C 08 0B FFFFFF82 09 FFFFFF82 37 FFFFFF82 FFFFFF80 FFFFFFA0 FFFFFF80
   04 FFFFFF82 3E 08 0B FFFFFF82 43 FFFFFF82 37 FFFFFF82 FFFFFF80 FFFFFFA0 FFFFFF80 04 FFFFFF82 3C
   01 04 6B 65 79 32 08 0B FFFFFF82 45 FFFFFF82 37 FFFFFF82 FFFFFF80 FFFFFFA0 FFFFFF80
   04 FFFFFF82 3E 01 06 76 61 6C 75 65 32 08 07 74 FFFFFF82 37
   FFFFFF84 00 FFFFFF82 47 14 0A FFFFFF82 48 FFFFFF82 49 FFFFFF82 4A FFFFFF82 4B FFFFFF82 4C
   10 07 7D FFFFFF82 37 FFFFFF82 3C FFFFFF82 3E 08 08 FFFFFF82 07 FFFFFF82 46 FFFFFFC0
   00 FFFFFF82 3C 08 08 FFFFFF82 09 FFFFFF82 46 FFFFFFC0 00 FFFFFF82 3E 08 08 FFFFFF82
   43 FFFFFF82 46 FFFFFFC0 00 FFFFFF82 3C 08 08 FFFFFF82 45 FFFFFF82 46 FFFFFFC0 00 FFFFFF82
   3E 08 08 FFFFFF81 22 FFFFFF82 37 FFFFFF84 20 FFFFFF81 23 08 08 FFFFFF81 28 FFFFFF82
   37 FFFFFF84 00 FFFFFF82 4F 14 04 FFFFFF82 50 FFFFFF82 51 10 05 18 FFFFFF81 2B
   FFFFFF82 3E 08 07 46 FFFFFF82 4E FFFFFFC0 00 FFFFFF82 3C 08 08 FFFFFF81 2F FFFFFF82
   37 FFFFFF84 00 FFFFFF82 53 15 02 FFFFFF82 54 10 05 2A FFFFFF81 32 FFFFFF82 55
   10 06 18 19 FFFFFF82 3C FFFFFF82 3E 08 07 3D FFFFFF82 37 FFFFFF84 20 FFFFFF82
   57 15 04 FFFFFF82 58 FFFFFF82 5B 14 06 FFFFFF82 59 FFFFFF82 5D FFFFFF82 5E 10
   06 14 00 FFFFFF82 3C FFFFFF82 5A 10 03 1C FFFFFF82 5B 04 0A 43 FFFFFF82
   56 FFFFFF84 FFFFFF80 FFFFFF80 FFFFFFC2 00 FFFFFF82 5C 11 03 FFFFFF82 3E 23 08 07 46
   FFFFFF82 56 FFFFFFC0 00 FFFFFF82 3C 08 07 48 FFFFFF82 56 FFFFFFC0 00 FFFFFF82 5A 08
   07 4A FFFFFF82 37 FFFFFF84 00 FFFFFF82 60 15 04 FFFFFF82 61 FFFFFF82 64 14 04
   FFFFFF82 62 FFFFFF82 65 10 06 14 00 FFFFFF82 3C FFFFFF82 63 10 03 1C FFFFFF82
   64 04 0A 43 FFFFFF82 5F FFFFFF84 FFFFFF80 FFFFFF80 FFFFFFC2 00 FFFFFF82 5C 08 07 51
   FFFFFF82 5F FFFFFFC0 00 FFFFFF82 66 10 06 18 19 FFFFFF82 3C FFFFFF82 63 08 08
   FFFFFF81 49 FFFFFF82 37 FFFFFF84 00 FFFFFF82 68 14 04 FFFFFF82 3B FFFFFF82 69 08 07
   46 FFFFFF82 67 FFFFFFC0 00 FFFFFF82 3C 08 08 FFFFFF82 2D FFFFFF82 37 FFFFFF84 20 FFFFFF82
   6B 15 04 FFFFFF82 6C FFFFFF82 70 14 03 36 FFFFFF82 6D 08 08 FFFFFF82 31
   FFFFFF82 6A FFFFFFC0 00 FFFFFF82 6E 10 06 18 5D FFFFFF82 55 FFFFFF82 6F 10 03
   1C FFFFFF82 70 04 0A FFFFFF82 35 FFFFFF82 6A FFFFFF84 FFFFFF80 FFFFFF80 FFFFFFC2 00 1F 28
   04 FFFFFF82 37 FFFFFF81 7A 06 06 FFFFFF82 73 6A 00 FFFFFF82 74 02 04 4D
   61 70 33 15 06 FFFFFF82 75 FFFFFF82 78 FFFFFF82 7A 13 06 FFFFFF82 72 0B
   FFFFFF82 76 30 10 06 14 00 FFFFFF82 77 FFFFFF82 79 10 03 1C FFFFFF82 78
   04 09 1E FFFFFF82 72 FFFFFF84 FFFFFF80 FFFFFF80 FFFFFFC2 00 1F 10 03 1C FFFFFF82 7A
   04 09 28 FFFFFF82 72 FFFFFF84 FFFFFF80 FFFFFF84 FFFFFFC2 00 1F 08 0B FFFFFF82 07 FFFFFF82
   72 FFFFFF82 FFFFFF80 FFFFFFA0 FFFFFF80 04 FFFFFF82 77 08 0B FFFFFF82 09 FFFFFF82 72 FFFFFF82 FFFFFF80
   FFFFFFA0 FFFFFF80 04 FFFFFF82 79 08 0B FFFFFF82 43 FFFFFF82 72 FFFFFF82 FFFFFF80 FFFFFFA0 FFFFFF80 04
   FFFFFF82 77 08 0B FFFFFF82 45 FFFFFF82 72 FFFFFF82 FFFFFF80 FFFFFFA0 FFFFFF80 04 FFFFFF82 79 08
   0B FFFFFF83 00 FFFFFF82 72 FFFFFF82 FFFFFF80 FFFFFFA0 FFFFFF80 04 FFFFFF82 77 01 04 6B 65
   79 33 08 0B FFFFFF83 02 FFFFFF82 72 FFFFFF82 FFFFFF80 FFFFFFA0 FFFFFF80 04 FFFFFF82 79 01
   06 76 61 6C 75 65 33 08 07 74 FFFFFF82 72 FFFFFF84 00 FFFFFF83 04
   14 0E FFFFFF83 05 FFFFFF83 06 FFFFFF83 07 FFFFFF83 08 FFFFFF83 09 FFFFFF83 0A FFFFFF83 0B
   10 07 7D FFFFFF82 72 FFFFFF82 77 FFFFFF82 79 08 08 FFFFFF82 07 FFFFFF83 03 FFFFFFC0
   00 FFFFFF82 77 08 08 FFFFFF82 09 FFFFFF83 03 FFFFFFC0 00 FFFFFF82 79 08 08 FFFFFF82
   43 FFFFFF83 03 FFFFFFC0 00 FFFFFF82 77 08 08 FFFFFF82 45 FFFFFF83 03 FFFFFFC0 00 FFFFFF82
   79 08 08 FFFFFF83 00 FFFFFF83 03 FFFFFFC0 00 FFFFFF82 77 08 08 FFFFFF83 02 FFFFFF83
   03 FFFFFFC0 00 FFFFFF82 79 08 08 FFFFFF81 22 FFFFFF82 72 FFFFFF84 20 FFFFFF81 23 08
   08 FFFFFF81 28 FFFFFF82 72 FFFFFF84 00 FFFFFF83 0E 14 04 FFFFFF83 0F FFFFFF83 10 10
   05 18 FFFFFF81 2B FFFFFF82 79 08 07 46 FFFFFF83 0D FFFFFFC0 00 FFFFFF82 77 08
   08 FFFFFF81 2F FFFFFF82 72 FFFFFF84 00 FFFFFF83 12 15 02 FFFFFF83 13 10 05 2A
   FFFFFF81 32 FFFFFF83 14 10 06 18 19 FFFFFF82 77 FFFFFF82 79 08 07 3D FFFFFF82
   72 FFFFFF84 20 FFFFFF83 16 15 04 FFFFFF83 17 FFFFFF83 1A 14 06 FFFFFF83 18 FFFFFF83
   1C FFFFFF83 1D 10 06 14 00 FFFFFF82 77 FFFFFF83 19 10 03 1C FFFFFF83 1A
   04 0A 43 FFFFFF83 15 FFFFFF84 FFFFFF80 FFFFFF80 FFFFFFC2 00 FFFFFF83 1B 11 03 FFFFFF82 79
   23 08 07 46 FFFFFF83 15 FFFFFFC0 00 FFFFFF82 77 08 07 48 FFFFFF83 15 FFFFFFC0
   00 FFFFFF83 19 08 07 4A FFFFFF82 72 FFFFFF84 00 FFFFFF83 1F 15 04 FFFFFF83 20
   FFFFFF83 23 14 04 FFFFFF83 21 FFFFFF83 24 10 06 14 00 FFFFFF82 77 FFFFFF83 22
   10 03 1C FFFFFF83 23 04 0A 43 FFFFFF83 1E FFFFFF84 FFFFFF80 FFFFFF80 FFFFFFC2 00 FFFFFF83
   1B 08 07 51 FFFFFF83 1E FFFFFFC0 00 FFFFFF83 25 10 06 18 19 FFFFFF82 77
   FFFFFF83 22 08 08 FFFFFF81 49 FFFFFF82 72 FFFFFF84 00 FFFFFF83 27 14 04 FFFFFF82 76
   FFFFFF83 28 08 07 46 FFFFFF83 26 FFFFFFC0 00 FFFFFF82 77 08 08 FFFFFF82 2D FFFFFF82
   72 FFFFFF84 20 FFFFFF83 2A 15 04 FFFFFF83 2B FFFFFF83 2F 14 03 36 FFFFFF83 2C
   08 08 FFFFFF82 31 FFFFFF83 29 FFFFFFC0 00 FFFFFF83 2D 10 06 18 5D FFFFFF83 14
   FFFFFF83 2E 10 03 1C FFFFFF83 2F 04 0A FFFFFF82 35 FFFFFF83 29 FFFFFF84 FFFFFF80 FFFFFF80
   FFFFFFC2 00 1F 28 04 FFFFFF82 72 FFFFFF81 7A 06 06 FFFFFF83 32 6A 00 FFFFFF83
   33 02 04 4D 61 70 34 15 06 FFFFFF83 34 FFFFFF83 37 FFFFFF83 39 13
   06 FFFFFF83 31 0B FFFFFF83 35 30 10 06 14 00 FFFFFF83 36 FFFFFF83 38 10
   03 1C FFFFFF83 37 04 09 1E FFFFFF83 31 FFFFFF84 FFFFFF80 FFFFFF80 FFFFFFC2 00 1F 10
   03 1C FFFFFF83 39 04 09 28 FFFFFF83 31 FFFFFF84 FFFFFF80 FFFFFF84 FFFFFFC2 00 1F 08
   0B FFFFFF82 07 FFFFFF83 31 FFFFFF82 FFFFFF80 FFFFFFA0 FFFFFF80 04 FFFFFF83 36 08 0B FFFFFF82 09
   FFFFFF83 31 FFFFFF82 FFFFFF80 FFFFFFA0 FFFFFF80 04 FFFFFF83 38 08 0B FFFFFF82 43 FFFFFF83 31 FFFFFF82
   FFFFFF80 FFFFFFA0 FFFFFF80 04 FFFFFF83 36 08 0B FFFFFF82 45 FFFFFF83 31 FFFFFF82 FFFFFF80 FFFFFFA0 FFFFFF80
   04 FFFFFF83 38 08 0B FFFFFF83 00 FFFFFF83 31 FFFFFF82 FFFFFF80 FFFFFFA0 FFFFFF80 04 FFFFFF83 36
   08 0B FFFFFF83 02 FFFFFF83 31 FFFFFF82 FFFFFF80 FFFFFFA0 FFFFFF80 04 FFFFFF83 38 08 0B FFFFFF83
   41 FFFFFF83 31 FFFFFF82 FFFFFF80 FFFFFFA0 FFFFFF80 04 FFFFFF83 36 01 04 6B 65 79 34
   08 0B FFFFFF83 43 FFFFFF83 31 FFFFFF82 FFFFFF80 FFFFFFA0 FFFFFF80 04 FFFFFF83 38 01 06 76
   61 6C 75 65 34 08 07 74 FFFFFF83 31 FFFFFF84 00 FFFFFF83 45 14 12
   FFFFFF83 46 FFFFFF83 47 FFFFFF83 48 FFFFFF83 49 FFFFFF83 4A FFFFFF83 4B FFFFFF83 4C FFFFFF83 4D
   FFFFFF83 4E 10 07 7D FFFFFF83 31 FFFFFF83 36 FFFFFF83 38 08 08 FFFFFF82 07 FFFFFF83
   44 FFFFFFC0 00 FFFFFF83 36 08 08 FFFFFF82 09 FFFFFF83 44 FFFFFFC0 00 FFFFFF83 38 08
   08 FFFFFF82 43 FFFFFF83 44 FFFFFFC0 00 FFFFFF83 36 08 08 FFFFFF82 45 FFFFFF83 44 FFFFFFC0
   00 FFFFFF83 38 08 08 FFFFFF83 00 FFFFFF83 44 FFFFFFC0 00 FFFFFF83 36 08 08 FFFFFF83
   02 FFFFFF83 44 FFFFFFC0 00 FFFFFF83 38 08 08 FFFFFF83 41 FFFFFF83 44 FFFFFFC0 00 FFFFFF83
   36 08 08 FFFFFF83 43 FFFFFF83 44 FFFFFFC0 00 FFFFFF83 38 08 08 FFFFFF81 22 FFFFFF83
   31 FFFFFF84 20 FFFFFF81 23 08 08 FFFFFF81 28 FFFFFF83 31 FFFFFF84 00 FFFFFF83 51 14
   04 FFFFFF83 52 FFFFFF83 53 10 05 18 FFFFFF81 2B FFFFFF83 38 08 07 46 FFFFFF83
   50 FFFFFFC0 00 FFFFFF83 36 08 08 FFFFFF81 2F FFFFFF83 31 FFFFFF84 00 FFFFFF83 55 15
   02 FFFFFF83 56 10 05 2A FFFFFF81 32 FFFFFF83 57 10 06 18 19 FFFFFF83 36
   FFFFFF83 38 08 07 3D FFFFFF83 31 FFFFFF84 20 FFFFFF83 59 15 04 FFFFFF83 5A FFFFFF83
   5D 14 06 FFFFFF83 5B FFFFFF83 5F FFFFFF83 60 10 06 14 00 FFFFFF83 36 FFFFFF83
   5C 10 03 1C FFFFFF83 5D 04 0A 43 FFFFFF83 58 FFFFFF84 FFFFFF80 FFFFFF80 FFFFFFC2 00
   FFFFFF83 5E 11 03 FFFFFF83 38 23 08 07 46 FFFFFF83 58 FFFFFFC0 00 FFFFFF83 36
   08 07 48 FFFFFF83 58 FFFFFFC0 00 FFFFFF83 5C 08 07 4A FFFFFF83 31 FFFFFF84 00
   FFFFFF83 62 15 04 FFFFFF83 63 FFFFFF83 66 14 04 FFFFFF83 64 FFFFFF83 67 10 06
   14 00 FFFFFF83 36 FFFFFF83 65 10 03 1C FFFFFF83 66 04 0A 43 FFFFFF83 61
   FFFFFF84 FFFFFF80 FFFFFF80 FFFFFFC2 00 FFFFFF83 5E 08 07 51 FFFFFF83 61 FFFFFFC0 00 FFFFFF83 68
   10 06 18 19 FFFFFF83 36 FFFFFF83 65 08 08 FFFFFF81 49 FFFFFF83 31 FFFFFF84 00
   FFFFFF83 6A 14 04 FFFFFF83 35 FFFFFF83 6B 08 07 46 FFFFFF83 69 FFFFFFC0 00 FFFFFF83
   36 08 08 FFFFFF82 2D FFFFFF83 31 FFFFFF84 20 FFFFFF83 6D 15 04 FFFFFF83 6E FFFFFF83
   72 14 03 36 FFFFFF83 6F 08 08 FFFFFF82 31 FFFFFF83 6C FFFFFFC0 00 FFFFFF83 70
   10 06 18 5D FFFFFF83 57 FFFFFF83 71 10 03 1C FFFFFF83 72 04 0A FFFFFF82
   35 FFFFFF83 6C FFFFFF84 FFFFFF80 FFFFFF80 FFFFFFC2 00 1F 28 04 FFFFFF83 31 FFFFFF81 7A 
  InnerClass: 
   public #26= #23 of #25; //Map4=class scala/collection/immutable/Map$Map4 of class scala/collection/immutable/Map
   public #29= #28 of #25; //Map3=class scala/collection/immutable/Map$Map3 of class scala/collection/immutable/Map
   public #32= #31 of #25; //Map2=class scala/collection/immutable/Map$Map2 of class scala/collection/immutable/Map
   public #35= #34 of #25; //Map1=class scala/collection/immutable/Map$Map1 of class scala/collection/immutable/Map
   public #38= #37 of #25; //EmptyMap=class scala/collection/immutable/Map$EmptyMap of class scala/collection/immutable/Map
   public #41= #40 of #25; //WithDefault=class scala/collection/immutable/Map$WithDefault of class scala/collection/immutable/Map
   public final #44= #43 of #25; //$anonfun$withDefaultValue$1=class scala/collection/immutable/Map$$anonfun$withDefaultValue$1 of class scala/collection/immutable/Map
  minor version: 0
  major version: 49
  Constant pool:
const #1 = Asciz	SourceFile;
const #2 = Asciz	Map.scala;
const #3 = Asciz	withDefaultValue;
const #4 = Asciz	(Ljava/lang/Object;)Lscala/collection/immutable/Map;;
const #5 = Asciz	<B1:Ljava/lang/Object;>(TB1;)Lscala/collection/immutable/Map<TA;TB1;>;;
const #6 = Asciz	Signature;
const #7 = Asciz	withDefault;
const #8 = Asciz	(Lscala/Function1;)Lscala/collection/immutable/Map;;
const #9 = Asciz	<B1:Ljava/lang/Object;>(Lscala/Function1<TA;TB1;>;)Lscala/collection/immutable/Map<TA;TB1;>;;
const #10 = Asciz	$plus;
const #11 = Asciz	(Lscala/Tuple2;)Lscala/collection/immutable/Map;;
const #12 = Asciz	<B1:Ljava/lang/Object;>(Lscala/Tuple2<TA;TB1;>;)Lscala/collection/immutable/Map<TA;TB1;>;;
const #13 = Asciz	updated;
const #14 = Asciz	(Ljava/lang/Object;Ljava/lang/Object;)Lscala/collection/immutable/Map;;
const #15 = Asciz	<B1:Ljava/lang/Object;>(TA;TB1;)Lscala/collection/immutable/Map<TA;TB1;>;;
const #16 = Asciz	empty;
const #17 = Asciz	()Lscala/collection/immutable/Map;;
const #18 = Asciz	()Lscala/collection/immutable/Map<TA;TB;>;;
const #19 = Asciz	<A:Ljava/lang/Object;B:Ljava/lang/Object;>Ljava/lang/Object;Lscala/collection/immutable/Iterable<Lscala/Tuple2<TA;TB;>;>;Lscala/collection/Map<TA;TB;>;Lscala/collection/immutable/MapLike<TA;TB;Lscala/collection/immutable/Map<TA;TB;>;>;Lscala/ScalaObject;;
const #20 = Asciz	ScalaSig;
const #21 = Asciz	InnerClasses;
const #22 = Asciz	scala/collection/immutable/Map$Map4;
const #23 = class	#22;	//  scala/collection/immutable/Map$Map4
const #24 = Asciz	scala/collection/immutable/Map;
const #25 = class	#24;	//  scala/collection/immutable/Map
const #26 = Asciz	Map4;
const #27 = Asciz	scala/collection/immutable/Map$Map3;
const #28 = class	#27;	//  scala/collection/immutable/Map$Map3
const #29 = Asciz	Map3;
const #30 = Asciz	scala/collection/immutable/Map$Map2;
const #31 = class	#30;	//  scala/collection/immutable/Map$Map2
const #32 = Asciz	Map2;
const #33 = Asciz	scala/collection/immutable/Map$Map1;
const #34 = class	#33;	//  scala/collection/immutable/Map$Map1
const #35 = Asciz	Map1;
const #36 = Asciz	scala/collection/immutable/Map$EmptyMap;
const #37 = class	#36;	//  scala/collection/immutable/Map$EmptyMap
const #38 = Asciz	EmptyMap;
const #39 = Asciz	scala/collection/immutable/Map$WithDefault;
const #40 = class	#39;	//  scala/collection/immutable/Map$WithDefault
const #41 = Asciz	WithDefault;
const #42 = Asciz	scala/collection/immutable/Map$$anonfun$withDefaultValue$1;
const #43 = class	#42;	//  scala/collection/immutable/Map$$anonfun$withDefaultValue$1
const #44 = Asciz	$anonfun$withDefaultValue$1;
const #45 = Asciz	java/lang/Object;
const #46 = class	#45;	//  java/lang/Object
const #47 = Asciz	scala/collection/immutable/Iterable;
const #48 = class	#47;	//  scala/collection/immutable/Iterable
const #49 = Asciz	scala/collection/Map;
const #50 = class	#49;	//  scala/collection/Map
const #51 = Asciz	scala/collection/immutable/MapLike;
const #52 = class	#51;	//  scala/collection/immutable/MapLike
const #53 = Asciz	scala/ScalaObject;
const #54 = class	#53;	//  scala/ScalaObject

{
public abstract scala.collection.immutable.Map withDefaultValue(java.lang.Object);
  Signature: length = 0x2
   00 05 

public abstract scala.collection.immutable.Map withDefault(scala.Function1);
  Signature: length = 0x2
   00 09 

public abstract scala.collection.immutable.Map $plus(scala.Tuple2);
  Signature: length = 0x2
   00 0C 

public abstract scala.collection.immutable.Map updated(java.lang.Object, java.lang.Object);
  Signature: length = 0x2
   00 0F 

public abstract scala.collection.immutable.Map empty();
  Signature: length = 0x2
   00 12 

}

