Compiled from "NumericRange.scala"
public abstract class scala.collection.immutable.NumericRange extends java.lang.Object implements scala.collection.immutable.IndexedSeq,scala.ScalaObject,java.io.Serializable
  SourceFile: "NumericRange.scala"
  Signature: length = 0x2
   04 0B 
  ScalaSig: length = 0x7D6
   05 00 FFFFFF82 11 06 05 01 02 FFFFFF81 00 09 02 0C 4E 75 6D
   65 72 69 63 52 61 6E 67 65 0A 02 03 04 01 09 69
   6D 6D 75 74 61 62 6C 65 0A 02 05 06 01 0A 63 6F
   6C 6C 65 63 74 69 6F 6E 0A 01 07 01 05 73 63 61
   6C 61 03 00 15 02 0A 19 13 04 00 0B 13 23 10 02
   0C 11 0D 01 0D 0A 02 0E 0F 01 04 6C 61 6E 67 0A
   01 10 01 04 6A 61 76 61 09 02 12 0D 02 06 4F 62
   6A 65 63 74 10 03 14 15 17 0D 01 02 09 02 16 02
   02 0A 49 6E 64 65 78 65 64 53 65 71 10 02 18 19
   0C 00 04 08 1A 00 FFFFFF84 FFFFFF80 FFFFFF80 FFFFFFC2 00 1B 02 01 54 11
   02 1C 20 10 02 1D 1E 0D 01 06 09 02 1F 06 02 07
   4E 6F 74 68 69 6E 67 10 02 1D 21 09 02 22 06 02
   03 41 6E 79 10 02 1D 24 09 02 25 06 02 0B 53 63
   61 6C 61 4F 62 6A 65 63 74 08 08 27 00 FFFFFF82 FFFFFFC2 FFFFFF80
   FFFFFF84 00 28 01 05 73 74 61 72 74 15 01 17 08 08 2A
   00 FFFFFF82 FFFFFF80 FFFFFFA0 FFFFFF80 04 17 01 06 73 74 61 72 74 20 08
   08 2C 00 FFFFFF82 FFFFFFC2 FFFFFF80 FFFFFF84 00 28 01 03 65 6E 64 08 08
   2E 00 FFFFFF82 FFFFFF80 FFFFFFA0 FFFFFF80 04 17 01 04 65 6E 64 20 08 08
   30 00 FFFFFF82 FFFFFFC2 FFFFFF80 FFFFFF84 00 28 01 04 73 74 65 70 08 08
   32 00 FFFFFF82 FFFFFF80 FFFFFFA0 FFFFFF80 04 17 01 05 73 74 65 70 20 08
   08 34 00 FFFFFF82 FFFFFFC2 FFFFFF80 FFFFFF84 00 35 01 0B 69 73 49 6E 63
   6C 75 73 69 76 65 15 01 36 10 02 1D 37 09 02 38
   06 02 07 42 6F 6F 6C 65 61 6E 08 08 3A 00 FFFFFF82 FFFFFF80
   FFFFFFA0 FFFFFF80 04 36 01 0C 69 73 49 6E 63 6C 75 73 69 76
   65 20 08 08 3C 00 FFFFFF82 FFFFFF80 FFFFFFA0 FFFFFF80 05 3D 01 03 6E 75
   6D 10 03 3E 46 17 0E 02 3F 44 0E 02 40 43 0D 01
   41 0A 02 42 08 01 06 3C 72 6F 6F 74 3E 09 01 07
   09 02 45 06 01 07 70 61 63 6B 61 67 65 09 02 47
   48 02 08 49 6E 74 65 67 72 61 6C 0A 02 45 06 08
   05 4A 00 FFFFFF84 00 4B 01 06 3C 69 6E 69 74 3E 14 05
   4C 4F 50 51 52 16 02 4D 4E 10 03 14 00 17 08 05
   3C 49 FFFFFFC0 01 3D 08 05 27 49 FFFFFFC0 00 17 08 05 2C 49
   FFFFFFC0 00 17 08 05 30 49 FFFFFFC0 00 17 08 05 34 49 FFFFFFC0 00
   36 08 05 54 00 FFFFFF84 04 55 01 04 66 61 69 6C 14 02
   1C 56 08 05 57 53 FFFFFFC0 00 58 01 03 6D 73 67 10 02
   59 5C 0E 02 1D 5A 09 02 5B 06 01 06 50 72 65 64
   65 66 09 02 5D 5E 02 06 53 74 72 69 6E 67 0A 02
   5B 06 08 05 60 00 FFFFFF84 08 61 01 09 6C 69 6D 69 74
   54 65 73 74 14 02 36 62 08 05 63 5F FFFFFFC0 00 17 01
   01 78 08 05 65 00 FFFFFF84 08 66 01 0A 75 6E 64 65 72
   6C 79 69 6E 67 15 01 13 08 05 68 00 FFFFFF84 00 69 01
   02 62 79 14 02 4D 6A 08 05 6B 67 FFFFFFC0 00 17 01 07
   6E 65 77 53 74 65 70 08 05 6D 00 FFFFFF86 00 6E 01 04
   63 6F 70 79 14 04 4D 6F 70 71 08 05 27 6C FFFFFFC0 00
   17 08 05 2C 6C FFFFFFC0 00 17 08 05 30 6C FFFFFFC0 00 17 08
   05 73 00 FFFFFF84 20 74 01 07 66 6F 72 65 61 63 68 15
   02 75 7F 14 02 76 79 10 02 1D 77 09 02 78 06 02
   04 55 6E 69 74 08 05 7A 72 FFFFFFC0 00 7B 01 01 66 10
   04 1D 7C 17 7E 09 02 7D 06 02 09 46 75 6E 63 74
   69 6F 6E 31 10 02 18 7F 04 09 FFFFFF81 00 72 FFFFFF84 FFFFFF80 FFFFFF80
   FFFFFFC2 00 1B 02 01 55 08 06 FFFFFF81 02 00 FFFFFF84 00 28 01 0D
   67 65 6E 65 72 69 63 4C 65 6E 67 74 68 08 07 FFFFFF81
   04 00 FFFFFF84 00 FFFFFF81 05 01 06 6C 65 6E 67 74 68 15 02
   FFFFFF81 06 10 03 1D FFFFFF81 07 09 03 FFFFFF81 08 06 02 03 49 6E
   74 08 06 FFFFFF81 0A 00 FFFFFF84 20 35 01 07 69 73 45 6D 70
   74 79 08 07 FFFFFF81 0C 00 FFFFFF84 00 FFFFFF81 0D 01 05 61 70 70
   6C 79 14 03 17 FFFFFF81 0E 08 08 FFFFFF81 0F FFFFFF81 0B FFFFFFC0 00 FFFFFF81
   06 01 03 69 64 78 08 07 FFFFFF81 11 00 FFFFFF84 00 FFFFFF81 12 01
   0D 63 6F 6E 74 61 69 6E 73 54 79 70 65 64 14 03
   36 FFFFFF81 13 08 06 63 FFFFFF81 10 FFFFFFC0 00 17 08 08 FFFFFF81 15 00
   FFFFFF84 00 02 FFFFFF81 16 01 08 6D 61 70 52 61 6E 67 65 15
   04 FFFFFF81 17 FFFFFF81 1B 14 04 FFFFFF81 18 FFFFFF81 20 16 04 FFFFFF81 19 FFFFFF81
   1D 10 04 14 00 FFFFFF81 1A 10 03 18 FFFFFF81 1B 04 0A FFFFFF81 1C
   FFFFFF81 14 FFFFFF84 FFFFFF80 FFFFFF80 FFFFFFC2 00 1B 02 01 41 08 08 FFFFFF81 1E FFFFFF81
   14 FFFFFFC0 01 FFFFFF81 1F 01 04 75 6E 75 6D 10 04 3E 46 FFFFFF81
   1A 08 08 FFFFFF81 21 FFFFFF81 14 FFFFFFC0 00 FFFFFF81 22 01 02 66 6D 10
   05 1D 7C 17 FFFFFF81 1A 08 07 FFFFFF81 24 00 FFFFFF84 20 FFFFFF81 25 01
   08 63 6F 6E 74 61 69 6E 73 14 03 36 FFFFFF81 26 08 06
   63 FFFFFF81 23 FFFFFFC0 00 20 08 0A FFFFFF81 28 00 FFFFFF88 FFFFFFC2 FFFFFF80 FFFFFF84 20
   FFFFFF81 05 01 08 68 61 73 68 43 6F 64 65 08 0A FFFFFF81 2A
   00 FFFFFF88 FFFFFF80 FFFFFFA0 FFFFFFA0 04 FFFFFF81 06 01 09 68 61 73 68 43 6F
   64 65 20 08 07 FFFFFF81 2C 00 FFFFFF84 20 FFFFFF81 2D 01 06 65 71
   75 61 6C 73 14 03 36 FFFFFF81 2E 08 07 FFFFFF81 2F FFFFFF81 2B FFFFFFC0
   00 20 01 05 6F 74 68 65 72 08 07 FFFFFF81 31 00 FFFFFF84 20
   FFFFFF81 32 01 08 74 6F 53 74 72 69 6E 67 14 01 58 28
   03 00 FFFFFF81 34 10 03 1D FFFFFF81 35 09 03 FFFFFF81 36 06 02 0C
   73 65 72 69 61 6C 69 7A 61 62 6C 65 07 07 FFFFFF81 38
   02 FFFFFF88 02 FFFFFF81 39 01 0C 4E 75 6D 65 72 69 63 52 61
   6E 67 65 10 03 14 FFFFFF81 3A 06 09 01 02 FFFFFF84 FFFFFF80 FFFFFF80 FFFFFF88
   02 FFFFFF81 3B 13 04 FFFFFF81 3A 0B 23 08 07 4A FFFFFF81 3A FFFFFF84 00
   FFFFFF81 3D 14 02 FFFFFF81 39 06 07 FFFFFF81 3F FFFFFF81 3A 00 FFFFFF81 40 02
   09 49 6E 63 6C 75 73 69 76 65 15 04 FFFFFF81 41 FFFFFF81 44
   13 05 FFFFFF81 3E FFFFFF81 42 23 10 04 14 00 FFFFFF81 43 10 03 18
   FFFFFF81 44 04 09 1A FFFFFF81 3E FFFFFF84 FFFFFF80 FFFFFF80 FFFFFFC2 00 1B 08 0B 27
   FFFFFF81 3E FFFFFF82 FFFFFF80 FFFFFFA0 FFFFFF80 04 FFFFFF81 43 26 08 0B 2C FFFFFF81 3E FFFFFF82
   FFFFFF80 FFFFFFA0 FFFFFF80 04 FFFFFF81 43 2B 08 0B 30 FFFFFF81 3E FFFFFF82 FFFFFF80 FFFFFFA0 FFFFFF80
   04 FFFFFF81 43 2F 08 0A 3C FFFFFF81 3E FFFFFF82 FFFFFF80 FFFFFFA0 FFFFFF80 05 FFFFFF81 49
   10 04 3E 46 FFFFFF81 43 08 07 4A FFFFFF81 3E FFFFFF84 00 FFFFFF81 4B 14
   08 FFFFFF81 4C FFFFFF81 50 FFFFFF81 51 FFFFFF81 52 16 04 FFFFFF81 4D FFFFFF81 4F 10
   06 FFFFFF81 4E FFFFFF81 3E FFFFFF81 43 0D 02 FFFFFF81 3A 08 07 3C FFFFFF81 4A
   FFFFFFC0 01 FFFFFF81 49 08 07 27 FFFFFF81 4A FFFFFFC0 00 FFFFFF81 43 08 07 2C
   FFFFFF81 4A FFFFFFC0 00 FFFFFF81 43 08 07 30 FFFFFF81 4A FFFFFFC0 00 FFFFFF81 43 08
   07 6D FFFFFF81 3E FFFFFF84 00 FFFFFF81 54 14 08 FFFFFF81 4D FFFFFF81 55 FFFFFF81 56
   FFFFFF81 57 08 07 27 FFFFFF81 53 FFFFFFC0 00 FFFFFF81 43 08 07 2C FFFFFF81 53
   FFFFFFC0 00 FFFFFF81 43 08 07 30 FFFFFF81 53 FFFFFFC0 00 FFFFFF81 43 08 08 FFFFFF81
   59 FFFFFF81 3E FFFFFF84 00 FFFFFF81 5A 01 09 65 78 63 6C 75 73 69
   76 65 15 02 FFFFFF81 5B 10 06 FFFFFF81 4E FFFFFF81 5C FFFFFF81 43 06 07
   FFFFFF81 5D FFFFFF81 3A 00 FFFFFF81 5E 02 09 45 78 63 6C 75 73 69
   76 65 15 04 FFFFFF81 5F FFFFFF81 62 13 05 FFFFFF81 5C FFFFFF81 60 23 10
   04 14 00 FFFFFF81 61 10 03 18 FFFFFF81 62 04 09 1A FFFFFF81 5C FFFFFF84
   FFFFFF80 FFFFFF80 FFFFFFC2 00 1B 08 0B 27 FFFFFF81 5C FFFFFF82 FFFFFF80 FFFFFFA0 FFFFFF80 04 FFFFFF81
   61 26 08 0B 2C FFFFFF81 5C FFFFFF82 FFFFFF80 FFFFFFA0 FFFFFF80 04 FFFFFF81 61 2B 08
   0B 30 FFFFFF81 5C FFFFFF82 FFFFFF80 FFFFFFA0 FFFFFF80 04 FFFFFF81 61 2F 08 0A 3C FFFFFF81
   5C FFFFFF82 FFFFFF80 FFFFFFA0 FFFFFF80 05 FFFFFF81 67 10 04 3E 46 FFFFFF81 61 08 07
   4A FFFFFF81 5C FFFFFF84 00 FFFFFF81 69 14 08 FFFFFF81 6A FFFFFF81 6D FFFFFF81 6E FFFFFF81
   6F 16 04 FFFFFF81 6B FFFFFF81 6C 10 06 FFFFFF81 4E FFFFFF81 5C FFFFFF81 61 08
   07 3C FFFFFF81 68 FFFFFFC0 01 FFFFFF81 67 08 07 27 FFFFFF81 68 FFFFFFC0 00 FFFFFF81
   61 08 07 2C FFFFFF81 68 FFFFFFC0 00 FFFFFF81 61 08 07 30 FFFFFF81 68 FFFFFFC0
   00 FFFFFF81 61 08 07 6D FFFFFF81 5C FFFFFF84 00 FFFFFF81 71 14 08 FFFFFF81 6B
   FFFFFF81 72 FFFFFF81 73 FFFFFF81 74 08 07 27 FFFFFF81 70 FFFFFFC0 00 FFFFFF81 61 08
   07 2C FFFFFF81 70 FFFFFFC0 00 FFFFFF81 61 08 07 30 FFFFFF81 70 FFFFFFC0 00 FFFFFF81
   61 08 08 FFFFFF81 76 FFFFFF81 5C FFFFFF84 00 FFFFFF81 77 01 09 69 6E 63
   6C 75 73 69 76 65 15 02 FFFFFF81 78 10 06 FFFFFF81 4E FFFFFF81 3E
   FFFFFF81 61 08 08 FFFFFF81 0C FFFFFF81 3A FFFFFF84 00 FFFFFF81 7A 15 04 FFFFFF81 7B
   FFFFFF81 7F 14 08 FFFFFF81 7C FFFFFF82 02 FFFFFF82 03 FFFFFF82 04 16 04 FFFFFF81 7D
   FFFFFF82 00 10 06 FFFFFF81 4E FFFFFF81 5C FFFFFF81 7E 10 03 18 FFFFFF81 7F 04
   09 1A FFFFFF81 79 FFFFFF84 FFFFFF80 FFFFFF80 FFFFFFC2 00 1B 08 07 3C FFFFFF81 79 FFFFFFC0
   01 FFFFFF82 01 10 04 3E 46 FFFFFF81 7E 08 07 27 FFFFFF81 79 FFFFFFC0 00
   FFFFFF81 7E 08 07 2C FFFFFF81 79 FFFFFFC0 00 FFFFFF81 7E 08 07 30 FFFFFF81 79
   FFFFFFC0 00 FFFFFF81 7E 08 08 FFFFFF81 76 FFFFFF81 3A FFFFFF84 00 FFFFFF82 06 15 04
   FFFFFF82 07 FFFFFF82 0B 14 08 FFFFFF82 08 FFFFFF82 0E FFFFFF82 0F FFFFFF82 10 16 04
   FFFFFF82 09 FFFFFF82 0C 10 06 FFFFFF81 4E FFFFFF81 3E FFFFFF82 0A 10 03 18 FFFFFF82
   0B 04 09 1A FFFFFF82 05 FFFFFF84 FFFFFF80 FFFFFF80 FFFFFFC2 00 1B 08 07 3C FFFFFF82
   05 FFFFFFC0 01 FFFFFF82 0D 10 04 3E 46 FFFFFF82 0A 08 07 27 FFFFFF82 05
   FFFFFFC0 00 FFFFFF82 0A 08 07 2C FFFFFF82 05 FFFFFFC0 00 FFFFFF82 0A 08 07 30
   FFFFFF82 05 FFFFFFC0 00 FFFFFF82 0A 
  InnerClass: 
   public Ops=class scala/math/Numeric$Ops of class scala/math/Numeric
   public Ops=class scala/math/Ordering$Ops of class scala/math/Ordering
   public final $anon$1=class scala/collection/immutable/NumericRange$$anon$1 of class scala/collection/immutable/NumericRange
   public IntegralOps=class scala/math/Integral$IntegralOps of class scala/math/Integral
   public Exclusive=class scala/collection/immutable/NumericRange$Exclusive of class scala/collection/immutable/NumericRange
   public Inclusive=class scala/collection/immutable/NumericRange$Inclusive of class scala/collection/immutable/NumericRange
   public abstract $less$colon$less=class scala/Predef$$less$colon$less of class scala/Predef
   public WithFilter=class scala/collection/TraversableLike$WithFilter of class scala/collection/TraversableLike
  minor version: 0
  major version: 49
  Constant pool:
Asciz	SourceFile;
Asciz	NumericRange.scala;
Asciz	inclusive;
Asciz	(Ljava/lang/Object;Ljava/lang/Object;Ljava/lang/Object;Lscala/math/Integral;)Lscala/collection/immutable/NumericRange$Inclusive;;
Asciz	Code;
Asciz	scala/collection/immutable/NumericRange$;
class	scala/collection/immutable/NumericRange$
Asciz	MODULE$;
Asciz	Lscala/collection/immutable/NumericRange$;;
NameAndType	MODULE$:Lscala/collection/immutable/NumericRange$;
Field	scala/collection/immutable/NumericRange$.MODULE$:Lscala/collection/immutable/NumericRange$;
NameAndType	inclusive:(Ljava/lang/Object;Ljava/lang/Object;Ljava/lang/Object;Lscala/math/Integral;)Lscala/collection/immutable/NumericRange$Inclusive;
Method	scala/collection/immutable/NumericRange$.inclusive:(Ljava/lang/Object;Ljava/lang/Object;Ljava/lang/Object;Lscala/math/Integral;)Lscala/collection/immutable/NumericRange$Inclusive;
Asciz	<T:Ljava/lang/Object;>(TT;TT;TT;Lscala/math/Integral<TT;>;)Lscala/collection/immutable/NumericRange$Inclusive<TT;>;;
Asciz	Signature;
Asciz	bitmap$0;
Asciz	I;
Asciz	hashCode;
Asciz	num;
Asciz	Lscala/math/Integral;;
Asciz	Lscala/math/Integral<TT;>;;
Asciz	isInclusive;
Asciz	Z;
Asciz	step;
Asciz	Ljava/lang/Object;;
Asciz	TT;;
Asciz	end;
Asciz	start;
Asciz	companion;
Asciz	()Lscala/collection/generic/GenericCompanion;;
Asciz	LineNumberTable;
Asciz	scala/collection/immutable/IndexedSeq$class;
class	scala/collection/immutable/IndexedSeq$class
Asciz	(Lscala/collection/immutable/IndexedSeq;)Lscala/collection/generic/GenericCompanion;;
NameAndType	companion:(Lscala/collection/immutable/IndexedSeq;)Lscala/collection/generic/GenericCompanion;
Method	scala/collection/immutable/IndexedSeq$class.companion:(Lscala/collection/immutable/IndexedSeq;)Lscala/collection/generic/GenericCompanion;
Asciz	scala$collection$IndexedSeqLike$$super$reduceLeft;
Asciz	(Lscala/Function2;)Ljava/lang/Object;;
Asciz	scala/collection/TraversableLike$class;
class	scala/collection/TraversableLike$class
Asciz	reduceLeft;
Asciz	(Lscala/collection/TraversableLike;Lscala/Function2;)Ljava/lang/Object;;
NameAndType	reduceLeft:(Lscala/collection/TraversableLike;Lscala/Function2;)Ljava/lang/Object;
Method	scala/collection/TraversableLike$class.reduceLeft:(Lscala/collection/TraversableLike;Lscala/Function2;)Ljava/lang/Object;
Asciz	this;
Asciz	Lscala/collection/immutable/NumericRange;;
Asciz	op;
Asciz	Lscala/Function2;;
Asciz	LocalVariableTable;
Asciz	scala$collection$IndexedSeqLike$$super$reduceRight;
Asciz	scala/collection/IterableLike$class;
class	scala/collection/IterableLike$class
Asciz	reduceRight;
Asciz	(Lscala/collection/IterableLike;Lscala/Function2;)Ljava/lang/Object;;
NameAndType	reduceRight:(Lscala/collection/IterableLike;Lscala/Function2;)Ljava/lang/Object;
Method	scala/collection/IterableLike$class.reduceRight:(Lscala/collection/IterableLike;Lscala/Function2;)Ljava/lang/Object;
Asciz	scala$collection$IndexedSeqLike$$super$zip;
Asciz	(Lscala/collection/Iterable;Lscala/collection/generic/CanBuildFrom;)Ljava/lang/Object;;
Asciz	zip;
Asciz	(Lscala/collection/IterableLike;Lscala/collection/Iterable;Lscala/collection/generic/CanBuildFrom;)Ljava/lang/Object;;
NameAndType	zip:(Lscala/collection/IterableLike;Lscala/collection/Iterable;Lscala/collection/generic/CanBuildFrom;)Ljava/lang/Object;
Method	scala/collection/IterableLike$class.zip:(Lscala/collection/IterableLike;Lscala/collection/Iterable;Lscala/collection/generic/CanBuildFrom;)Ljava/lang/Object;
Asciz	that;
Asciz	Lscala/collection/Iterable;;
Asciz	bf;
Asciz	Lscala/collection/generic/CanBuildFrom;;
Asciz	scala$collection$IndexedSeqLike$$super$head;
Asciz	()Ljava/lang/Object;;
Asciz	head;
Asciz	(Lscala/collection/IterableLike;)Ljava/lang/Object;;
NameAndType	head:(Lscala/collection/IterableLike;)Ljava/lang/Object;
Method	scala/collection/IterableLike$class.head:(Lscala/collection/IterableLike;)Ljava/lang/Object;
Asciz	scala$collection$IndexedSeqLike$$super$tail;
Asciz	tail;
Asciz	(Lscala/collection/TraversableLike;)Ljava/lang/Object;;
NameAndType	tail:(Lscala/collection/TraversableLike;)Ljava/lang/Object;
Method	scala/collection/TraversableLike$class.tail:(Lscala/collection/TraversableLike;)Ljava/lang/Object;
Asciz	scala$collection$IndexedSeqLike$$super$last;
Asciz	last;
NameAndType	last:(Lscala/collection/TraversableLike;)Ljava/lang/Object;
Method	scala/collection/TraversableLike$class.last:(Lscala/collection/TraversableLike;)Ljava/lang/Object;
Asciz	scala$collection$IndexedSeqLike$$super$init;
Asciz	init;
NameAndType	init:(Lscala/collection/TraversableLike;)Ljava/lang/Object;
Method	scala/collection/TraversableLike$class.init:(Lscala/collection/TraversableLike;)Ljava/lang/Object;
Asciz	scala$collection$IndexedSeqLike$$super$sameElements;
Asciz	(Lscala/collection/Iterable;)Z;
Asciz	sameElements;
Asciz	(Lscala/collection/IterableLike;Lscala/collection/Iterable;)Z;
NameAndType	sameElements:(Lscala/collection/IterableLike;Lscala/collection/Iterable;)Z
Method	scala/collection/IterableLike$class.sameElements:(Lscala/collection/IterableLike;Lscala/collection/Iterable;)Z
Asciz	scala$collection$IndexedSeqLike$$super$endsWith;
Asciz	(Lscala/collection/Seq;)Z;
Asciz	scala/collection/SeqLike$class;
class	scala/collection/SeqLike$class
Asciz	endsWith;
Asciz	(Lscala/collection/SeqLike;Lscala/collection/Seq;)Z;
NameAndType	endsWith:(Lscala/collection/SeqLike;Lscala/collection/Seq;)Z
Method	scala/collection/SeqLike$class.endsWith:(Lscala/collection/SeqLike;Lscala/collection/Seq;)Z
Asciz	Lscala/collection/Seq;;
Asciz	thisCollection;
Asciz	()Lscala/collection/IndexedSeq;;
Asciz	scala/collection/IndexedSeqLike$class;
class	scala/collection/IndexedSeqLike$class
Asciz	(Lscala/collection/IndexedSeqLike;)Lscala/collection/IndexedSeq;;
NameAndType	thisCollection:(Lscala/collection/IndexedSeqLike;)Lscala/collection/IndexedSeq;
Method	scala/collection/IndexedSeqLike$class.thisCollection:(Lscala/collection/IndexedSeqLike;)Lscala/collection/IndexedSeq;
Asciz	toCollection;
Asciz	(Ljava/lang/Object;)Lscala/collection/IndexedSeq;;
Asciz	(Lscala/collection/IndexedSeqLike;Ljava/lang/Object;)Lscala/collection/IndexedSeq;;
NameAndType	toCollection:(Lscala/collection/IndexedSeqLike;Ljava/lang/Object;)Lscala/collection/IndexedSeq;
Method	scala/collection/IndexedSeqLike$class.toCollection:(Lscala/collection/IndexedSeqLike;Ljava/lang/Object;)Lscala/collection/IndexedSeq;
Asciz	repr;
Asciz	iterator;
Asciz	()Lscala/collection/Iterator;;
Asciz	(Lscala/collection/IndexedSeqLike;)Lscala/collection/Iterator;;
NameAndType	iterator:(Lscala/collection/IndexedSeqLike;)Lscala/collection/Iterator;
Method	scala/collection/IndexedSeqLike$class.iterator:(Lscala/collection/IndexedSeqLike;)Lscala/collection/Iterator;
Asciz	forall;
Asciz	(Lscala/Function1;)Z;
Asciz	(Lscala/collection/IndexedSeqLike;Lscala/Function1;)Z;
NameAndType	forall:(Lscala/collection/IndexedSeqLike;Lscala/Function1;)Z
Method	scala/collection/IndexedSeqLike$class.forall:(Lscala/collection/IndexedSeqLike;Lscala/Function1;)Z
Asciz	p;
Asciz	Lscala/Function1;;
Asciz	exists;
NameAndType	exists:(Lscala/collection/IndexedSeqLike;Lscala/Function1;)Z
Method	scala/collection/IndexedSeqLike$class.exists:(Lscala/collection/IndexedSeqLike;Lscala/Function1;)Z
Asciz	find;
Asciz	(Lscala/Function1;)Lscala/Option;;
Asciz	(Lscala/collection/IndexedSeqLike;Lscala/Function1;)Lscala/Option;;
NameAndType	find:(Lscala/collection/IndexedSeqLike;Lscala/Function1;)Lscala/Option;
Method	scala/collection/IndexedSeqLike$class.find:(Lscala/collection/IndexedSeqLike;Lscala/Function1;)Lscala/Option;
Asciz	foldLeft;
Asciz	(Ljava/lang/Object;Lscala/Function2;)Ljava/lang/Object;;
Asciz	(Lscala/collection/IndexedSeqLike;Ljava/lang/Object;Lscala/Function2;)Ljava/lang/Object;;
NameAndType	foldLeft:(Lscala/collection/IndexedSeqLike;Ljava/lang/Object;Lscala/Function2;)Ljava/lang/Object;
Method	scala/collection/IndexedSeqLike$class.foldLeft:(Lscala/collection/IndexedSeqLike;Ljava/lang/Object;Lscala/Function2;)Ljava/lang/Object;
Asciz	z;
Asciz	foldRight;
NameAndType	foldRight:(Lscala/collection/IndexedSeqLike;Ljava/lang/Object;Lscala/Function2;)Ljava/lang/Object;
Method	scala/collection/IndexedSeqLike$class.foldRight:(Lscala/collection/IndexedSeqLike;Ljava/lang/Object;Lscala/Function2;)Ljava/lang/Object;
Asciz	(Lscala/collection/IndexedSeqLike;Lscala/Function2;)Ljava/lang/Object;;
NameAndType	reduceLeft:(Lscala/collection/IndexedSeqLike;Lscala/Function2;)Ljava/lang/Object;
Method	scala/collection/IndexedSeqLike$class.reduceLeft:(Lscala/collection/IndexedSeqLike;Lscala/Function2;)Ljava/lang/Object;
NameAndType	reduceRight:(Lscala/collection/IndexedSeqLike;Lscala/Function2;)Ljava/lang/Object;
Method	scala/collection/IndexedSeqLike$class.reduceRight:(Lscala/collection/IndexedSeqLike;Lscala/Function2;)Ljava/lang/Object;
Asciz	(Lscala/collection/IndexedSeqLike;Lscala/collection/Iterable;Lscala/collection/generic/CanBuildFrom;)Ljava/lang/Object;;
NameAndType	zip:(Lscala/collection/IndexedSeqLike;Lscala/collection/Iterable;Lscala/collection/generic/CanBuildFrom;)Ljava/lang/Object;
Method	scala/collection/IndexedSeqLike$class.zip:(Lscala/collection/IndexedSeqLike;Lscala/collection/Iterable;Lscala/collection/generic/CanBuildFrom;)Ljava/lang/Object;
Asciz	zipWithIndex;
Asciz	(Lscala/collection/generic/CanBuildFrom;)Ljava/lang/Object;;
Asciz	(Lscala/collection/IndexedSeqLike;Lscala/collection/generic/CanBuildFrom;)Ljava/lang/Object;;
NameAndType	zipWithIndex:(Lscala/collection/IndexedSeqLike;Lscala/collection/generic/CanBuildFrom;)Ljava/lang/Object;
Method	scala/collection/IndexedSeqLike$class.zipWithIndex:(Lscala/collection/IndexedSeqLike;Lscala/collection/generic/CanBuildFrom;)Ljava/lang/Object;
Asciz	slice;
Asciz	(II)Ljava/lang/Object;;
Asciz	(Lscala/collection/IndexedSeqLike;II)Ljava/lang/Object;;
NameAndType	slice:(Lscala/collection/IndexedSeqLike;II)Ljava/lang/Object;
Method	scala/collection/IndexedSeqLike$class.slice:(Lscala/collection/IndexedSeqLike;II)Ljava/lang/Object;
Asciz	from;
Asciz	until;
Asciz	(Lscala/collection/IndexedSeqLike;)Ljava/lang/Object;;
NameAndType	head:(Lscala/collection/IndexedSeqLike;)Ljava/lang/Object;
Method	scala/collection/IndexedSeqLike$class.head:(Lscala/collection/IndexedSeqLike;)Ljava/lang/Object;
NameAndType	tail:(Lscala/collection/IndexedSeqLike;)Ljava/lang/Object;
Method	scala/collection/IndexedSeqLike$class.tail:(Lscala/collection/IndexedSeqLike;)Ljava/lang/Object;
NameAndType	last:(Lscala/collection/IndexedSeqLike;)Ljava/lang/Object;
Method	scala/collection/IndexedSeqLike$class.last:(Lscala/collection/IndexedSeqLike;)Ljava/lang/Object;
NameAndType	init:(Lscala/collection/IndexedSeqLike;)Ljava/lang/Object;
Method	scala/collection/IndexedSeqLike$class.init:(Lscala/collection/IndexedSeqLike;)Ljava/lang/Object;
Asciz	take;
Asciz	(I)Ljava/lang/Object;;
Asciz	(Lscala/collection/IndexedSeqLike;I)Ljava/lang/Object;;
NameAndType	take:(Lscala/collection/IndexedSeqLike;I)Ljava/lang/Object;
Method	scala/collection/IndexedSeqLike$class.take:(Lscala/collection/IndexedSeqLike;I)Ljava/lang/Object;
Asciz	n;
Asciz	drop;
NameAndType	drop:(Lscala/collection/IndexedSeqLike;I)Ljava/lang/Object;
Method	scala/collection/IndexedSeqLike$class.drop:(Lscala/collection/IndexedSeqLike;I)Ljava/lang/Object;
Asciz	takeRight;
NameAndType	takeRight:(Lscala/collection/IndexedSeqLike;I)Ljava/lang/Object;
Method	scala/collection/IndexedSeqLike$class.takeRight:(Lscala/collection/IndexedSeqLike;I)Ljava/lang/Object;
Asciz	dropRight;
NameAndType	dropRight:(Lscala/collection/IndexedSeqLike;I)Ljava/lang/Object;
Method	scala/collection/IndexedSeqLike$class.dropRight:(Lscala/collection/IndexedSeqLike;I)Ljava/lang/Object;
Asciz	splitAt;
Asciz	(I)Lscala/Tuple2;;
Asciz	(Lscala/collection/IndexedSeqLike;I)Lscala/Tuple2;;
NameAndType	splitAt:(Lscala/collection/IndexedSeqLike;I)Lscala/Tuple2;
Method	scala/collection/IndexedSeqLike$class.splitAt:(Lscala/collection/IndexedSeqLike;I)Lscala/Tuple2;
Asciz	takeWhile;
Asciz	(Lscala/Function1;)Ljava/lang/Object;;
Asciz	(Lscala/collection/IndexedSeqLike;Lscala/Function1;)Ljava/lang/Object;;
NameAndType	takeWhile:(Lscala/collection/IndexedSeqLike;Lscala/Function1;)Ljava/lang/Object;
Method	scala/collection/IndexedSeqLike$class.takeWhile:(Lscala/collection/IndexedSeqLike;Lscala/Function1;)Ljava/lang/Object;
Asciz	dropWhile;
NameAndType	dropWhile:(Lscala/collection/IndexedSeqLike;Lscala/Function1;)Ljava/lang/Object;
Method	scala/collection/IndexedSeqLike$class.dropWhile:(Lscala/collection/IndexedSeqLike;Lscala/Function1;)Ljava/lang/Object;
Asciz	span;
Asciz	(Lscala/Function1;)Lscala/Tuple2;;
Asciz	(Lscala/collection/IndexedSeqLike;Lscala/Function1;)Lscala/Tuple2;;
NameAndType	span:(Lscala/collection/IndexedSeqLike;Lscala/Function1;)Lscala/Tuple2;
Method	scala/collection/IndexedSeqLike$class.span:(Lscala/collection/IndexedSeqLike;Lscala/Function1;)Lscala/Tuple2;
Asciz	(Lscala/collection/IndexedSeqLike;Lscala/collection/Iterable;)Z;
NameAndType	sameElements:(Lscala/collection/IndexedSeqLike;Lscala/collection/Iterable;)Z
Method	scala/collection/IndexedSeqLike$class.sameElements:(Lscala/collection/IndexedSeqLike;Lscala/collection/Iterable;)Z
Asciz	copyToArray;
Asciz	(Ljava/lang/Object;II)V;
Asciz	(Lscala/collection/IndexedSeqLike;Ljava/lang/Object;II)V;
NameAndType	copyToArray:(Lscala/collection/IndexedSeqLike;Ljava/lang/Object;II)V
Method	scala/collection/IndexedSeqLike$class.copyToArray:(Lscala/collection/IndexedSeqLike;Ljava/lang/Object;II)V
Asciz	xs;
Asciz	len;
Asciz	lengthCompare;
Asciz	(I)I;
Asciz	(Lscala/collection/IndexedSeqLike;I)I;
NameAndType	lengthCompare:(Lscala/collection/IndexedSeqLike;I)I
Method	scala/collection/IndexedSeqLike$class.lengthCompare:(Lscala/collection/IndexedSeqLike;I)I
Asciz	segmentLength;
Asciz	(Lscala/Function1;I)I;
Asciz	(Lscala/collection/IndexedSeqLike;Lscala/Function1;I)I;
NameAndType	segmentLength:(Lscala/collection/IndexedSeqLike;Lscala/Function1;I)I
Method	scala/collection/IndexedSeqLike$class.segmentLength:(Lscala/collection/IndexedSeqLike;Lscala/Function1;I)I
Asciz	indexWhere;
NameAndType	indexWhere:(Lscala/collection/IndexedSeqLike;Lscala/Function1;I)I
Method	scala/collection/IndexedSeqLike$class.indexWhere:(Lscala/collection/IndexedSeqLike;Lscala/Function1;I)I
Asciz	lastIndexWhere;
NameAndType	lastIndexWhere:(Lscala/collection/IndexedSeqLike;Lscala/Function1;I)I
Method	scala/collection/IndexedSeqLike$class.lastIndexWhere:(Lscala/collection/IndexedSeqLike;Lscala/Function1;I)I
Asciz	reverse;
NameAndType	reverse:(Lscala/collection/IndexedSeqLike;)Ljava/lang/Object;
Method	scala/collection/IndexedSeqLike$class.reverse:(Lscala/collection/IndexedSeqLike;)Ljava/lang/Object;
Asciz	reverseIterator;
NameAndType	reverseIterator:(Lscala/collection/IndexedSeqLike;)Lscala/collection/Iterator;
Method	scala/collection/IndexedSeqLike$class.reverseIterator:(Lscala/collection/IndexedSeqLike;)Lscala/collection/Iterator;
Asciz	startsWith;
Asciz	(Lscala/collection/Seq;I)Z;
Asciz	(Lscala/collection/IndexedSeqLike;Lscala/collection/Seq;I)Z;
NameAndType	startsWith:(Lscala/collection/IndexedSeqLike;Lscala/collection/Seq;I)Z
Method	scala/collection/IndexedSeqLike$class.startsWith:(Lscala/collection/IndexedSeqLike;Lscala/collection/Seq;I)Z
Asciz	offset;
Asciz	(Lscala/collection/IndexedSeqLike;Lscala/collection/Seq;)Z;
NameAndType	endsWith:(Lscala/collection/IndexedSeqLike;Lscala/collection/Seq;)Z
Method	scala/collection/IndexedSeqLike$class.endsWith:(Lscala/collection/IndexedSeqLike;Lscala/collection/Seq;)Z
Asciz	view;
Asciz	()Lscala/collection/IndexedSeqView;;
Asciz	(Lscala/collection/IndexedSeqLike;)Lscala/collection/IndexedSeqView;;
NameAndType	view:(Lscala/collection/IndexedSeqLike;)Lscala/collection/IndexedSeqView;
Method	scala/collection/IndexedSeqLike$class.view:(Lscala/collection/IndexedSeqLike;)Lscala/collection/IndexedSeqView;
Asciz	(II)Lscala/collection/IndexedSeqView;;
Asciz	(Lscala/collection/IndexedSeqLike;II)Lscala/collection/IndexedSeqView;;
NameAndType	view:(Lscala/collection/IndexedSeqLike;II)Lscala/collection/IndexedSeqView;
Method	scala/collection/IndexedSeqLike$class.view:(Lscala/collection/IndexedSeqLike;II)Lscala/collection/IndexedSeqView;
Asciz	size;
Asciz	()I;
Asciz	(Lscala/collection/SeqLike;)I;
NameAndType	size:(Lscala/collection/SeqLike;)I
Method	scala/collection/SeqLike$class.size:(Lscala/collection/SeqLike;)I
Asciz	isDefinedAt;
Asciz	(I)Z;
Asciz	(Lscala/collection/SeqLike;I)Z;
NameAndType	isDefinedAt:(Lscala/collection/SeqLike;I)Z
Method	scala/collection/SeqLike$class.isDefinedAt:(Lscala/collection/SeqLike;I)Z
Asciz	idx;
Asciz	prefixLength;
Asciz	(Lscala/Function1;)I;
Asciz	(Lscala/collection/SeqLike;Lscala/Function1;)I;
NameAndType	prefixLength:(Lscala/collection/SeqLike;Lscala/Function1;)I
Method	scala/collection/SeqLike$class.prefixLength:(Lscala/collection/SeqLike;Lscala/Function1;)I
NameAndType	indexWhere:(Lscala/collection/SeqLike;Lscala/Function1;)I
Method	scala/collection/SeqLike$class.indexWhere:(Lscala/collection/SeqLike;Lscala/Function1;)I
Asciz	findIndexOf;
NameAndType	findIndexOf:(Lscala/collection/SeqLike;Lscala/Function1;)I
Method	scala/collection/SeqLike$class.findIndexOf:(Lscala/collection/SeqLike;Lscala/Function1;)I
Asciz	indexOf;
Asciz	(Ljava/lang/Object;)I;
Asciz	(Lscala/collection/SeqLike;Ljava/lang/Object;)I;
NameAndType	indexOf:(Lscala/collection/SeqLike;Ljava/lang/Object;)I
Method	scala/collection/SeqLike$class.indexOf:(Lscala/collection/SeqLike;Ljava/lang/Object;)I
Asciz	elem;
Asciz	(Ljava/lang/Object;I)I;
Asciz	(Lscala/collection/SeqLike;Ljava/lang/Object;I)I;
NameAndType	indexOf:(Lscala/collection/SeqLike;Ljava/lang/Object;I)I
Method	scala/collection/SeqLike$class.indexOf:(Lscala/collection/SeqLike;Ljava/lang/Object;I)I
Asciz	lastIndexOf;
NameAndType	lastIndexOf:(Lscala/collection/SeqLike;Ljava/lang/Object;)I
Method	scala/collection/SeqLike$class.lastIndexOf:(Lscala/collection/SeqLike;Ljava/lang/Object;)I
NameAndType	lastIndexOf:(Lscala/collection/SeqLike;Ljava/lang/Object;I)I
Method	scala/collection/SeqLike$class.lastIndexOf:(Lscala/collection/SeqLike;Ljava/lang/Object;I)I
NameAndType	lastIndexWhere:(Lscala/collection/SeqLike;Lscala/Function1;)I
Method	scala/collection/SeqLike$class.lastIndexWhere:(Lscala/collection/SeqLike;Lscala/Function1;)I
Asciz	reverseMap;
Asciz	(Lscala/Function1;Lscala/collection/generic/CanBuildFrom;)Ljava/lang/Object;;
Asciz	(Lscala/collection/SeqLike;Lscala/Function1;Lscala/collection/generic/CanBuildFrom;)Ljava/lang/Object;;
NameAndType	reverseMap:(Lscala/collection/SeqLike;Lscala/Function1;Lscala/collection/generic/CanBuildFrom;)Ljava/lang/Object;
Method	scala/collection/SeqLike$class.reverseMap:(Lscala/collection/SeqLike;Lscala/Function1;Lscala/collection/generic/CanBuildFrom;)Ljava/lang/Object;
Asciz	f;
Asciz	reversedElements;
Asciz	(Lscala/collection/SeqLike;)Lscala/collection/Iterator;;
NameAndType	reversedElements:(Lscala/collection/SeqLike;)Lscala/collection/Iterator;
Method	scala/collection/SeqLike$class.reversedElements:(Lscala/collection/SeqLike;)Lscala/collection/Iterator;
Asciz	Deprecated;
NameAndType	startsWith:(Lscala/collection/SeqLike;Lscala/collection/Seq;)Z
Method	scala/collection/SeqLike$class.startsWith:(Lscala/collection/SeqLike;Lscala/collection/Seq;)Z
Asciz	indexOfSlice;
Asciz	(Lscala/collection/Seq;)I;
Asciz	(Lscala/collection/SeqLike;Lscala/collection/Seq;)I;
NameAndType	indexOfSlice:(Lscala/collection/SeqLike;Lscala/collection/Seq;)I
Method	scala/collection/SeqLike$class.indexOfSlice:(Lscala/collection/SeqLike;Lscala/collection/Seq;)I
Asciz	(Lscala/collection/Seq;I)I;
Asciz	(Lscala/collection/SeqLike;Lscala/collection/Seq;I)I;
NameAndType	indexOfSlice:(Lscala/collection/SeqLike;Lscala/collection/Seq;I)I
Method	scala/collection/SeqLike$class.indexOfSlice:(Lscala/collection/SeqLike;Lscala/collection/Seq;I)I
Asciz	lastIndexOfSlice;
NameAndType	lastIndexOfSlice:(Lscala/collection/SeqLike;Lscala/collection/Seq;)I
Method	scala/collection/SeqLike$class.lastIndexOfSlice:(Lscala/collection/SeqLike;Lscala/collection/Seq;)I
NameAndType	lastIndexOfSlice:(Lscala/collection/SeqLike;Lscala/collection/Seq;I)I
Method	scala/collection/SeqLike$class.lastIndexOfSlice:(Lscala/collection/SeqLike;Lscala/collection/Seq;I)I
Asciz	containsSlice;
NameAndType	containsSlice:(Lscala/collection/SeqLike;Lscala/collection/Seq;)Z
Method	scala/collection/SeqLike$class.containsSlice:(Lscala/collection/SeqLike;Lscala/collection/Seq;)Z
Asciz	union;
Asciz	(Lscala/collection/Seq;Lscala/collection/generic/CanBuildFrom;)Ljava/lang/Object;;
Asciz	(Lscala/collection/SeqLike;Lscala/collection/Seq;Lscala/collection/generic/CanBuildFrom;)Ljava/lang/Object;;
NameAndType	union:(Lscala/collection/SeqLike;Lscala/collection/Seq;Lscala/collection/generic/CanBuildFrom;)Ljava/lang/Object;
Method	scala/collection/SeqLike$class.union:(Lscala/collection/SeqLike;Lscala/collection/Seq;Lscala/collection/generic/CanBuildFrom;)Ljava/lang/Object;
Asciz	diff;
Asciz	(Lscala/collection/Seq;)Ljava/lang/Object;;
Asciz	(Lscala/collection/SeqLike;Lscala/collection/Seq;)Ljava/lang/Object;;
NameAndType	diff:(Lscala/collection/SeqLike;Lscala/collection/Seq;)Ljava/lang/Object;
Method	scala/collection/SeqLike$class.diff:(Lscala/collection/SeqLike;Lscala/collection/Seq;)Ljava/lang/Object;
Asciz	intersect;
NameAndType	intersect:(Lscala/collection/SeqLike;Lscala/collection/Seq;)Ljava/lang/Object;
Method	scala/collection/SeqLike$class.intersect:(Lscala/collection/SeqLike;Lscala/collection/Seq;)Ljava/lang/Object;
Asciz	distinct;
Asciz	(Lscala/collection/SeqLike;)Ljava/lang/Object;;
NameAndType	distinct:(Lscala/collection/SeqLike;)Ljava/lang/Object;
Method	scala/collection/SeqLike$class.distinct:(Lscala/collection/SeqLike;)Ljava/lang/Object;
Asciz	patch;
Asciz	(ILscala/collection/Seq;ILscala/collection/generic/CanBuildFrom;)Ljava/lang/Object;;
Asciz	(Lscala/collection/SeqLike;ILscala/collection/Seq;ILscala/collection/generic/CanBuildFrom;)Ljava/lang/Object;;
NameAndType	patch:(Lscala/collection/SeqLike;ILscala/collection/Seq;ILscala/collection/generic/CanBuildFrom;)Ljava/lang/Object;
Method	scala/collection/SeqLike$class.patch:(Lscala/collection/SeqLike;ILscala/collection/Seq;ILscala/collection/generic/CanBuildFrom;)Ljava/lang/Object;
Asciz	replaced;
Asciz	updated;
Asciz	(ILjava/lang/Object;Lscala/collection/generic/CanBuildFrom;)Ljava/lang/Object;;
Asciz	(Lscala/collection/SeqLike;ILjava/lang/Object;Lscala/collection/generic/CanBuildFrom;)Ljava/lang/Object;;
NameAndType	updated:(Lscala/collection/SeqLike;ILjava/lang/Object;Lscala/collection/generic/CanBuildFrom;)Ljava/lang/Object;
Method	scala/collection/SeqLike$class.updated:(Lscala/collection/SeqLike;ILjava/lang/Object;Lscala/collection/generic/CanBuildFrom;)Ljava/lang/Object;
Asciz	index;
Asciz	$plus$colon;
Asciz	(Ljava/lang/Object;Lscala/collection/generic/CanBuildFrom;)Ljava/lang/Object;;
Asciz	(Lscala/collection/SeqLike;Ljava/lang/Object;Lscala/collection/generic/CanBuildFrom;)Ljava/lang/Object;;
NameAndType	$plus$colon:(Lscala/collection/SeqLike;Ljava/lang/Object;Lscala/collection/generic/CanBuildFrom;)Ljava/lang/Object;
Method	scala/collection/SeqLike$class.$plus$colon:(Lscala/collection/SeqLike;Ljava/lang/Object;Lscala/collection/generic/CanBuildFrom;)Ljava/lang/Object;
Asciz	$colon$plus;
NameAndType	$colon$plus:(Lscala/collection/SeqLike;Ljava/lang/Object;Lscala/collection/generic/CanBuildFrom;)Ljava/lang/Object;
Method	scala/collection/SeqLike$class.$colon$plus:(Lscala/collection/SeqLike;Ljava/lang/Object;Lscala/collection/generic/CanBuildFrom;)Ljava/lang/Object;
Asciz	padTo;
NameAndType	padTo:(Lscala/collection/SeqLike;ILjava/lang/Object;Lscala/collection/generic/CanBuildFrom;)Ljava/lang/Object;
Method	scala/collection/SeqLike$class.padTo:(Lscala/collection/SeqLike;ILjava/lang/Object;Lscala/collection/generic/CanBuildFrom;)Ljava/lang/Object;
Asciz	corresponds;
Asciz	(Lscala/collection/Seq;Lscala/Function2;)Z;
Asciz	(Lscala/collection/SeqLike;Lscala/collection/Seq;Lscala/Function2;)Z;
NameAndType	corresponds:(Lscala/collection/SeqLike;Lscala/collection/Seq;Lscala/Function2;)Z
Method	scala/collection/SeqLike$class.corresponds:(Lscala/collection/SeqLike;Lscala/collection/Seq;Lscala/Function2;)Z
Asciz	sortWith;
Asciz	(Lscala/collection/SeqLike;Lscala/Function2;)Ljava/lang/Object;;
NameAndType	sortWith:(Lscala/collection/SeqLike;Lscala/Function2;)Ljava/lang/Object;
Method	scala/collection/SeqLike$class.sortWith:(Lscala/collection/SeqLike;Lscala/Function2;)Ljava/lang/Object;
Asciz	lt;
Asciz	sortBy;
Asciz	(Lscala/Function1;Lscala/math/Ordering;)Ljava/lang/Object;;
Asciz	(Lscala/collection/SeqLike;Lscala/Function1;Lscala/math/Ordering;)Ljava/lang/Object;;
NameAndType	sortBy:(Lscala/collection/SeqLike;Lscala/Function1;Lscala/math/Ordering;)Ljava/lang/Object;
Method	scala/collection/SeqLike$class.sortBy:(Lscala/collection/SeqLike;Lscala/Function1;Lscala/math/Ordering;)Ljava/lang/Object;
Asciz	ord;
Asciz	Lscala/math/Ordering;;
Asciz	sorted;
Asciz	(Lscala/math/Ordering;)Ljava/lang/Object;;
Asciz	(Lscala/collection/SeqLike;Lscala/math/Ordering;)Ljava/lang/Object;;
NameAndType	sorted:(Lscala/collection/SeqLike;Lscala/math/Ordering;)Ljava/lang/Object;
Method	scala/collection/SeqLike$class.sorted:(Lscala/collection/SeqLike;Lscala/math/Ordering;)Ljava/lang/Object;
Asciz	toSeq;
Asciz	()Lscala/collection/Seq;;
Asciz	(Lscala/collection/SeqLike;)Lscala/collection/Seq;;
NameAndType	toSeq:(Lscala/collection/SeqLike;)Lscala/collection/Seq;
Method	scala/collection/SeqLike$class.toSeq:(Lscala/collection/SeqLike;)Lscala/collection/Seq;
Asciz	indices;
Asciz	()Lscala/collection/immutable/Range;;
Asciz	(Lscala/collection/SeqLike;)Lscala/collection/immutable/Range;;
NameAndType	indices:(Lscala/collection/SeqLike;)Lscala/collection/immutable/Range;
Method	scala/collection/SeqLike$class.indices:(Lscala/collection/SeqLike;)Lscala/collection/immutable/Range;
Asciz	findLastIndexOf;
NameAndType	findLastIndexOf:(Lscala/collection/SeqLike;Lscala/Function1;)I
Method	scala/collection/SeqLike$class.findLastIndexOf:(Lscala/collection/SeqLike;Lscala/Function1;)I
Asciz	equalsWith;
NameAndType	equalsWith:(Lscala/collection/SeqLike;Lscala/collection/Seq;Lscala/Function2;)Z
Method	scala/collection/SeqLike$class.equalsWith:(Lscala/collection/SeqLike;Lscala/collection/Seq;Lscala/Function2;)Z
Asciz	projection;
Asciz	()Lscala/collection/SeqView;;
Asciz	(Lscala/collection/SeqLike;)Lscala/collection/SeqView;;
NameAndType	projection:(Lscala/collection/SeqLike;)Lscala/collection/SeqView;
Method	scala/collection/SeqLike$class.projection:(Lscala/collection/SeqLike;)Lscala/collection/SeqView;
Asciz	orElse;
Asciz	(Lscala/PartialFunction;)Lscala/PartialFunction;;
Asciz	scala/PartialFunction$class;
class	scala/PartialFunction$class
Asciz	(Lscala/PartialFunction;Lscala/PartialFunction;)Lscala/PartialFunction;;
NameAndType	orElse:(Lscala/PartialFunction;Lscala/PartialFunction;)Lscala/PartialFunction;
Method	scala/PartialFunction$class.orElse:(Lscala/PartialFunction;Lscala/PartialFunction;)Lscala/PartialFunction;
Asciz	Lscala/PartialFunction;;
Asciz	andThen;
Asciz	(Lscala/Function1;)Lscala/PartialFunction;;
Asciz	(Lscala/PartialFunction;Lscala/Function1;)Lscala/PartialFunction;;
NameAndType	andThen:(Lscala/PartialFunction;Lscala/Function1;)Lscala/PartialFunction;
Method	scala/PartialFunction$class.andThen:(Lscala/PartialFunction;Lscala/Function1;)Lscala/PartialFunction;
Asciz	k;
Asciz	lift;
Asciz	()Lscala/Function1;;
Asciz	(Lscala/PartialFunction;)Lscala/Function1;;
NameAndType	lift:(Lscala/PartialFunction;)Lscala/Function1;
Method	scala/PartialFunction$class.lift:(Lscala/PartialFunction;)Lscala/Function1;
Asciz	compose;
Asciz	(Lscala/Function1;)Lscala/Function1;;
Asciz	scala/Function1$class;
class	scala/Function1$class
Asciz	(Lscala/Function1;Lscala/Function1;)Lscala/Function1;;
NameAndType	compose:(Lscala/Function1;Lscala/Function1;)Lscala/Function1;
Method	scala/Function1$class.compose:(Lscala/Function1;Lscala/Function1;)Lscala/Function1;
Asciz	g;
Asciz	elements;
Asciz	(Lscala/collection/IterableLike;)Lscala/collection/Iterator;;
NameAndType	elements:(Lscala/collection/IterableLike;)Lscala/collection/Iterator;
Method	scala/collection/IterableLike$class.elements:(Lscala/collection/IterableLike;)Lscala/collection/Iterator;
Asciz	toIterable;
Asciz	()Lscala/collection/Iterable;;
Asciz	(Lscala/collection/IterableLike;)Lscala/collection/Iterable;;
NameAndType	toIterable:(Lscala/collection/IterableLike;)Lscala/collection/Iterable;
Method	scala/collection/IterableLike$class.toIterable:(Lscala/collection/IterableLike;)Lscala/collection/Iterable;
Asciz	grouped;
Asciz	(I)Lscala/collection/Iterator;;
Asciz	(Lscala/collection/IterableLike;I)Lscala/collection/Iterator;;
NameAndType	grouped:(Lscala/collection/IterableLike;I)Lscala/collection/Iterator;
Method	scala/collection/IterableLike$class.grouped:(Lscala/collection/IterableLike;I)Lscala/collection/Iterator;
Asciz	sliding;
NameAndType	sliding:(Lscala/collection/IterableLike;I)Lscala/collection/Iterator;
Method	scala/collection/IterableLike$class.sliding:(Lscala/collection/IterableLike;I)Lscala/collection/Iterator;
Asciz	(II)Lscala/collection/Iterator;;
Asciz	(Lscala/collection/IterableLike;II)Lscala/collection/Iterator;;
NameAndType	sliding:(Lscala/collection/IterableLike;II)Lscala/collection/Iterator;
Method	scala/collection/IterableLike$class.sliding:(Lscala/collection/IterableLike;II)Lscala/collection/Iterator;
Asciz	zipAll;
Asciz	(Lscala/collection/Iterable;Ljava/lang/Object;Ljava/lang/Object;Lscala/collection/generic/CanBuildFrom;)Ljava/lang/Object;;
Asciz	(Lscala/collection/IterableLike;Lscala/collection/Iterable;Ljava/lang/Object;Ljava/lang/Object;Lscala/collection/generic/CanBuildFrom;)Ljava/lang/Object;;
NameAndType	zipAll:(Lscala/collection/IterableLike;Lscala/collection/Iterable;Ljava/lang/Object;Ljava/lang/Object;Lscala/collection/generic/CanBuildFrom;)Ljava/lang/Object;
Method	scala/collection/IterableLike$class.zipAll:(Lscala/collection/IterableLike;Lscala/collection/Iterable;Ljava/lang/Object;Ljava/lang/Object;Lscala/collection/generic/CanBuildFrom;)Ljava/lang/Object;
Asciz	thisElem;
Asciz	thatElem;
Asciz	toStream;
Asciz	()Lscala/collection/immutable/Stream;;
Asciz	(Lscala/collection/IterableLike;)Lscala/collection/immutable/Stream;;
NameAndType	toStream:(Lscala/collection/IterableLike;)Lscala/collection/immutable/Stream;
Method	scala/collection/IterableLike$class.toStream:(Lscala/collection/IterableLike;)Lscala/collection/immutable/Stream;
Asciz	canEqual;
Asciz	(Ljava/lang/Object;)Z;
Asciz	(Lscala/collection/IterableLike;Ljava/lang/Object;)Z;
NameAndType	canEqual:(Lscala/collection/IterableLike;Ljava/lang/Object;)Z
Method	scala/collection/IterableLike$class.canEqual:(Lscala/collection/IterableLike;Ljava/lang/Object;)Z
Asciz	first;
NameAndType	first:(Lscala/collection/IterableLike;)Ljava/lang/Object;
Method	scala/collection/IterableLike$class.first:(Lscala/collection/IterableLike;)Ljava/lang/Object;
Asciz	firstOption;
Asciz	()Lscala/Option;;
Asciz	(Lscala/collection/IterableLike;)Lscala/Option;;
NameAndType	firstOption:(Lscala/collection/IterableLike;)Lscala/Option;
Method	scala/collection/IterableLike$class.firstOption:(Lscala/collection/IterableLike;)Lscala/Option;
Asciz	newBuilder;
Asciz	()Lscala/collection/mutable/Builder;;
Asciz	scala/collection/generic/GenericTraversableTemplate$class;
class	scala/collection/generic/GenericTraversableTemplate$class
Asciz	(Lscala/collection/generic/GenericTraversableTemplate;)Lscala/collection/mutable/Builder;;
NameAndType	newBuilder:(Lscala/collection/generic/GenericTraversableTemplate;)Lscala/collection/mutable/Builder;
Method	scala/collection/generic/GenericTraversableTemplate$class.newBuilder:(Lscala/collection/generic/GenericTraversableTemplate;)Lscala/collection/mutable/Builder;
Asciz	genericBuilder;
NameAndType	genericBuilder:(Lscala/collection/generic/GenericTraversableTemplate;)Lscala/collection/mutable/Builder;
Method	scala/collection/generic/GenericTraversableTemplate$class.genericBuilder:(Lscala/collection/generic/GenericTraversableTemplate;)Lscala/collection/mutable/Builder;
Asciz	unzip;
Asciz	(Lscala/collection/generic/GenericTraversableTemplate;Lscala/Function1;)Lscala/Tuple2;;
NameAndType	unzip:(Lscala/collection/generic/GenericTraversableTemplate;Lscala/Function1;)Lscala/Tuple2;
Method	scala/collection/generic/GenericTraversableTemplate$class.unzip:(Lscala/collection/generic/GenericTraversableTemplate;Lscala/Function1;)Lscala/Tuple2;
Asciz	asPair;
Asciz	flatten;
Asciz	(Lscala/Function1;)Lscala/collection/Traversable;;
Asciz	(Lscala/collection/generic/GenericTraversableTemplate;Lscala/Function1;)Lscala/collection/Traversable;;
NameAndType	flatten:(Lscala/collection/generic/GenericTraversableTemplate;Lscala/Function1;)Lscala/collection/Traversable;
Method	scala/collection/generic/GenericTraversableTemplate$class.flatten:(Lscala/collection/generic/GenericTraversableTemplate;Lscala/Function1;)Lscala/collection/Traversable;
Asciz	asTraversable;
Asciz	transpose;
NameAndType	transpose:(Lscala/collection/generic/GenericTraversableTemplate;Lscala/Function1;)Lscala/collection/Traversable;
Method	scala/collection/generic/GenericTraversableTemplate$class.transpose:(Lscala/collection/generic/GenericTraversableTemplate;Lscala/Function1;)Lscala/collection/Traversable;
NameAndType	repr:(Lscala/collection/TraversableLike;)Ljava/lang/Object;
Method	scala/collection/TraversableLike$class.repr:(Lscala/collection/TraversableLike;)Ljava/lang/Object;
Asciz	nonEmpty;
Asciz	()Z;
Asciz	(Lscala/collection/TraversableLike;)Z;
NameAndType	nonEmpty:(Lscala/collection/TraversableLike;)Z
Method	scala/collection/TraversableLike$class.nonEmpty:(Lscala/collection/TraversableLike;)Z
Asciz	hasDefiniteSize;
NameAndType	hasDefiniteSize:(Lscala/collection/TraversableLike;)Z
Method	scala/collection/TraversableLike$class.hasDefiniteSize:(Lscala/collection/TraversableLike;)Z
Asciz	$plus$plus;
Asciz	(Lscala/collection/Traversable;Lscala/collection/generic/CanBuildFrom;)Ljava/lang/Object;;
Asciz	(Lscala/collection/TraversableLike;Lscala/collection/Traversable;Lscala/collection/generic/CanBuildFrom;)Ljava/lang/Object;;
NameAndType	$plus$plus:(Lscala/collection/TraversableLike;Lscala/collection/Traversable;Lscala/collection/generic/CanBuildFrom;)Ljava/lang/Object;
Method	scala/collection/TraversableLike$class.$plus$plus:(Lscala/collection/TraversableLike;Lscala/collection/Traversable;Lscala/collection/generic/CanBuildFrom;)Ljava/lang/Object;
Asciz	Lscala/collection/Traversable;;
Asciz	(Lscala/collection/Iterator;Lscala/collection/generic/CanBuildFrom;)Ljava/lang/Object;;
Asciz	(Lscala/collection/TraversableLike;Lscala/collection/Iterator;Lscala/collection/generic/CanBuildFrom;)Ljava/lang/Object;;
NameAndType	$plus$plus:(Lscala/collection/TraversableLike;Lscala/collection/Iterator;Lscala/collection/generic/CanBuildFrom;)Ljava/lang/Object;
Method	scala/collection/TraversableLike$class.$plus$plus:(Lscala/collection/TraversableLike;Lscala/collection/Iterator;Lscala/collection/generic/CanBuildFrom;)Ljava/lang/Object;
Asciz	Lscala/collection/Iterator;;
Asciz	map;
Asciz	(Lscala/collection/TraversableLike;Lscala/Function1;Lscala/collection/generic/CanBuildFrom;)Ljava/lang/Object;;
NameAndType	map:(Lscala/collection/TraversableLike;Lscala/Function1;Lscala/collection/generic/CanBuildFrom;)Ljava/lang/Object;
Method	scala/collection/TraversableLike$class.map:(Lscala/collection/TraversableLike;Lscala/Function1;Lscala/collection/generic/CanBuildFrom;)Ljava/lang/Object;
Asciz	flatMap;
NameAndType	flatMap:(Lscala/collection/TraversableLike;Lscala/Function1;Lscala/collection/generic/CanBuildFrom;)Ljava/lang/Object;
Method	scala/collection/TraversableLike$class.flatMap:(Lscala/collection/TraversableLike;Lscala/Function1;Lscala/collection/generic/CanBuildFrom;)Ljava/lang/Object;
Asciz	filter;
Asciz	(Lscala/collection/TraversableLike;Lscala/Function1;)Ljava/lang/Object;;
NameAndType	filter:(Lscala/collection/TraversableLike;Lscala/Function1;)Ljava/lang/Object;
Method	scala/collection/TraversableLike$class.filter:(Lscala/collection/TraversableLike;Lscala/Function1;)Ljava/lang/Object;
Asciz	filterNot;
NameAndType	filterNot:(Lscala/collection/TraversableLike;Lscala/Function1;)Ljava/lang/Object;
Method	scala/collection/TraversableLike$class.filterNot:(Lscala/collection/TraversableLike;Lscala/Function1;)Ljava/lang/Object;
Asciz	partialMap;
Asciz	(Lscala/PartialFunction;Lscala/collection/generic/CanBuildFrom;)Ljava/lang/Object;;
Asciz	(Lscala/collection/TraversableLike;Lscala/PartialFunction;Lscala/collection/generic/CanBuildFrom;)Ljava/lang/Object;;
NameAndType	partialMap:(Lscala/collection/TraversableLike;Lscala/PartialFunction;Lscala/collection/generic/CanBuildFrom;)Ljava/lang/Object;
Method	scala/collection/TraversableLike$class.partialMap:(Lscala/collection/TraversableLike;Lscala/PartialFunction;Lscala/collection/generic/CanBuildFrom;)Ljava/lang/Object;
Asciz	pf;
Asciz	partition;
Asciz	(Lscala/collection/TraversableLike;Lscala/Function1;)Lscala/Tuple2;;
NameAndType	partition:(Lscala/collection/TraversableLike;Lscala/Function1;)Lscala/Tuple2;
Method	scala/collection/TraversableLike$class.partition:(Lscala/collection/TraversableLike;Lscala/Function1;)Lscala/Tuple2;
Asciz	groupBy;
Asciz	(Lscala/Function1;)Lscala/collection/Map;;
Asciz	(Lscala/collection/TraversableLike;Lscala/Function1;)Lscala/collection/Map;;
NameAndType	groupBy:(Lscala/collection/TraversableLike;Lscala/Function1;)Lscala/collection/Map;
Method	scala/collection/TraversableLike$class.groupBy:(Lscala/collection/TraversableLike;Lscala/Function1;)Lscala/collection/Map;
Asciz	count;
Asciz	(Lscala/collection/TraversableLike;Lscala/Function1;)I;
NameAndType	count:(Lscala/collection/TraversableLike;Lscala/Function1;)I
Method	scala/collection/TraversableLike$class.count:(Lscala/collection/TraversableLike;Lscala/Function1;)I
Asciz	$div$colon;
Asciz	(Lscala/collection/TraversableLike;Ljava/lang/Object;Lscala/Function2;)Ljava/lang/Object;;
NameAndType	$div$colon:(Lscala/collection/TraversableLike;Ljava/lang/Object;Lscala/Function2;)Ljava/lang/Object;
Method	scala/collection/TraversableLike$class.$div$colon:(Lscala/collection/TraversableLike;Ljava/lang/Object;Lscala/Function2;)Ljava/lang/Object;
Asciz	$colon$bslash;
NameAndType	$colon$bslash:(Lscala/collection/TraversableLike;Ljava/lang/Object;Lscala/Function2;)Ljava/lang/Object;
Method	scala/collection/TraversableLike$class.$colon$bslash:(Lscala/collection/TraversableLike;Ljava/lang/Object;Lscala/Function2;)Ljava/lang/Object;
Asciz	reduceLeftOption;
Asciz	(Lscala/Function2;)Lscala/Option;;
Asciz	(Lscala/collection/TraversableLike;Lscala/Function2;)Lscala/Option;;
NameAndType	reduceLeftOption:(Lscala/collection/TraversableLike;Lscala/Function2;)Lscala/Option;
Method	scala/collection/TraversableLike$class.reduceLeftOption:(Lscala/collection/TraversableLike;Lscala/Function2;)Lscala/Option;
Asciz	reduceRightOption;
NameAndType	reduceRightOption:(Lscala/collection/TraversableLike;Lscala/Function2;)Lscala/Option;
Method	scala/collection/TraversableLike$class.reduceRightOption:(Lscala/collection/TraversableLike;Lscala/Function2;)Lscala/Option;
Asciz	sum;
Asciz	(Lscala/math/Numeric;)Ljava/lang/Object;;
Asciz	(Lscala/collection/TraversableLike;Lscala/math/Numeric;)Ljava/lang/Object;;
NameAndType	sum:(Lscala/collection/TraversableLike;Lscala/math/Numeric;)Ljava/lang/Object;
Method	scala/collection/TraversableLike$class.sum:(Lscala/collection/TraversableLike;Lscala/math/Numeric;)Ljava/lang/Object;
Asciz	Lscala/math/Numeric;;
Asciz	product;
NameAndType	product:(Lscala/collection/TraversableLike;Lscala/math/Numeric;)Ljava/lang/Object;
Method	scala/collection/TraversableLike$class.product:(Lscala/collection/TraversableLike;Lscala/math/Numeric;)Ljava/lang/Object;
Asciz	min;
Asciz	(Lscala/collection/TraversableLike;Lscala/math/Ordering;)Ljava/lang/Object;;
NameAndType	min:(Lscala/collection/TraversableLike;Lscala/math/Ordering;)Ljava/lang/Object;
Method	scala/collection/TraversableLike$class.min:(Lscala/collection/TraversableLike;Lscala/math/Ordering;)Ljava/lang/Object;
Asciz	cmp;
Asciz	max;
NameAndType	max:(Lscala/collection/TraversableLike;Lscala/math/Ordering;)Ljava/lang/Object;
Method	scala/collection/TraversableLike$class.max:(Lscala/collection/TraversableLike;Lscala/math/Ordering;)Ljava/lang/Object;
Asciz	headOption;
Asciz	(Lscala/collection/TraversableLike;)Lscala/Option;;
NameAndType	headOption:(Lscala/collection/TraversableLike;)Lscala/Option;
Method	scala/collection/TraversableLike$class.headOption:(Lscala/collection/TraversableLike;)Lscala/Option;
Asciz	lastOption;
NameAndType	lastOption:(Lscala/collection/TraversableLike;)Lscala/Option;
Method	scala/collection/TraversableLike$class.lastOption:(Lscala/collection/TraversableLike;)Lscala/Option;
Asciz	copyToBuffer;
Asciz	(Lscala/collection/mutable/Buffer;)V;
Asciz	(Lscala/collection/TraversableLike;Lscala/collection/mutable/Buffer;)V;
NameAndType	copyToBuffer:(Lscala/collection/TraversableLike;Lscala/collection/mutable/Buffer;)V
Method	scala/collection/TraversableLike$class.copyToBuffer:(Lscala/collection/TraversableLike;Lscala/collection/mutable/Buffer;)V
Asciz	dest;
Asciz	Lscala/collection/mutable/Buffer;;
Asciz	(Ljava/lang/Object;I)V;
Asciz	(Lscala/collection/TraversableLike;Ljava/lang/Object;I)V;
NameAndType	copyToArray:(Lscala/collection/TraversableLike;Ljava/lang/Object;I)V
Method	scala/collection/TraversableLike$class.copyToArray:(Lscala/collection/TraversableLike;Ljava/lang/Object;I)V
Asciz	(Ljava/lang/Object;)V;
Asciz	(Lscala/collection/TraversableLike;Ljava/lang/Object;)V;
NameAndType	copyToArray:(Lscala/collection/TraversableLike;Ljava/lang/Object;)V
Method	scala/collection/TraversableLike$class.copyToArray:(Lscala/collection/TraversableLike;Ljava/lang/Object;)V
Asciz	toArray;
Asciz	(Lscala/reflect/ClassManifest;)Ljava/lang/Object;;
Asciz	(Lscala/collection/TraversableLike;Lscala/reflect/ClassManifest;)Ljava/lang/Object;;
NameAndType	toArray:(Lscala/collection/TraversableLike;Lscala/reflect/ClassManifest;)Ljava/lang/Object;
Method	scala/collection/TraversableLike$class.toArray:(Lscala/collection/TraversableLike;Lscala/reflect/ClassManifest;)Ljava/lang/Object;
Asciz	evidence$1;
Asciz	Lscala/reflect/ClassManifest;;
Asciz	toList;
Asciz	()Lscala/collection/immutable/List;;
Asciz	(Lscala/collection/TraversableLike;)Lscala/collection/immutable/List;;
NameAndType	toList:(Lscala/collection/TraversableLike;)Lscala/collection/immutable/List;
Method	scala/collection/TraversableLike$class.toList:(Lscala/collection/TraversableLike;)Lscala/collection/immutable/List;
Asciz	toIndexedSeq;
Asciz	()Lscala/collection/mutable/IndexedSeq;;
Asciz	(Lscala/collection/TraversableLike;)Lscala/collection/mutable/IndexedSeq;;
NameAndType	toIndexedSeq:(Lscala/collection/TraversableLike;)Lscala/collection/mutable/IndexedSeq;
Method	scala/collection/TraversableLike$class.toIndexedSeq:(Lscala/collection/TraversableLike;)Lscala/collection/mutable/IndexedSeq;
Asciz	toSet;
Asciz	()Lscala/collection/immutable/Set;;
Asciz	(Lscala/collection/TraversableLike;)Lscala/collection/immutable/Set;;
NameAndType	toSet:(Lscala/collection/TraversableLike;)Lscala/collection/immutable/Set;
Method	scala/collection/TraversableLike$class.toSet:(Lscala/collection/TraversableLike;)Lscala/collection/immutable/Set;
Asciz	toMap;
Asciz	(Lscala/Predef$$less$colon$less;)Lscala/collection/immutable/Map;;
Asciz	(Lscala/collection/TraversableLike;Lscala/Predef$$less$colon$less;)Lscala/collection/immutable/Map;;
NameAndType	toMap:(Lscala/collection/TraversableLike;Lscala/Predef$$less$colon$less;)Lscala/collection/immutable/Map;
Method	scala/collection/TraversableLike$class.toMap:(Lscala/collection/TraversableLike;Lscala/Predef$$less$colon$less;)Lscala/collection/immutable/Map;
Asciz	ev;
Asciz	Lscala/Predef$$less$colon$less;;
Asciz	mkString;
Asciz	(Ljava/lang/String;Ljava/lang/String;Ljava/lang/String;)Ljava/lang/String;;
Asciz	(Lscala/collection/TraversableLike;Ljava/lang/String;Ljava/lang/String;Ljava/lang/String;)Ljava/lang/String;;
NameAndType	mkString:(Lscala/collection/TraversableLike;Ljava/lang/String;Ljava/lang/String;Ljava/lang/String;)Ljava/lang/String;
Method	scala/collection/TraversableLike$class.mkString:(Lscala/collection/TraversableLike;Ljava/lang/String;Ljava/lang/String;Ljava/lang/String;)Ljava/lang/String;
Asciz	Ljava/lang/String;;
Asciz	sep;
Asciz	(Ljava/lang/String;)Ljava/lang/String;;
Asciz	(Lscala/collection/TraversableLike;Ljava/lang/String;)Ljava/lang/String;;
NameAndType	mkString:(Lscala/collection/TraversableLike;Ljava/lang/String;)Ljava/lang/String;
Method	scala/collection/TraversableLike$class.mkString:(Lscala/collection/TraversableLike;Ljava/lang/String;)Ljava/lang/String;
Asciz	()Ljava/lang/String;;
Asciz	(Lscala/collection/TraversableLike;)Ljava/lang/String;;
NameAndType	mkString:(Lscala/collection/TraversableLike;)Ljava/lang/String;
Method	scala/collection/TraversableLike$class.mkString:(Lscala/collection/TraversableLike;)Ljava/lang/String;
Asciz	addString;
Asciz	(Lscala/collection/mutable/StringBuilder;Ljava/lang/String;Ljava/lang/String;Ljava/lang/String;)Lscala/collection/mutable/StringBuilder;;
Asciz	(Lscala/collection/TraversableLike;Lscala/collection/mutable/StringBuilder;Ljava/lang/String;Ljava/lang/String;Ljava/lang/String;)Lscala/collection/mutable/StringBuilder;;
NameAndType	addString:(Lscala/collection/TraversableLike;Lscala/collection/mutable/StringBuilder;Ljava/lang/String;Ljava/lang/String;Ljava/lang/String;)Lscala/collection/mutable/StringBuilder;
Method	scala/collection/TraversableLike$class.addString:(Lscala/collection/TraversableLike;Lscala/collection/mutable/StringBuilder;Ljava/lang/String;Ljava/lang/String;Ljava/lang/String;)Lscala/collection/mutable/StringBuilder;
Asciz	b;
Asciz	Lscala/collection/mutable/StringBuilder;;
Asciz	(Lscala/collection/mutable/StringBuilder;Ljava/lang/String;)Lscala/collection/mutable/StringBuilder;;
Asciz	(Lscala/collection/TraversableLike;Lscala/collection/mutable/StringBuilder;Ljava/lang/String;)Lscala/collection/mutable/StringBuilder;;
NameAndType	addString:(Lscala/collection/TraversableLike;Lscala/collection/mutable/StringBuilder;Ljava/lang/String;)Lscala/collection/mutable/StringBuilder;
Method	scala/collection/TraversableLike$class.addString:(Lscala/collection/TraversableLike;Lscala/collection/mutable/StringBuilder;Ljava/lang/String;)Lscala/collection/mutable/StringBuilder;
Asciz	(Lscala/collection/mutable/StringBuilder;)Lscala/collection/mutable/StringBuilder;;
Asciz	(Lscala/collection/TraversableLike;Lscala/collection/mutable/StringBuilder;)Lscala/collection/mutable/StringBuilder;;
NameAndType	addString:(Lscala/collection/TraversableLike;Lscala/collection/mutable/StringBuilder;)Lscala/collection/mutable/StringBuilder;
Method	scala/collection/TraversableLike$class.addString:(Lscala/collection/TraversableLike;Lscala/collection/mutable/StringBuilder;)Lscala/collection/mutable/StringBuilder;
Asciz	stringPrefix;
NameAndType	stringPrefix:(Lscala/collection/TraversableLike;)Ljava/lang/String;
Method	scala/collection/TraversableLike$class.stringPrefix:(Lscala/collection/TraversableLike;)Ljava/lang/String;
Asciz	withFilter;
Asciz	(Lscala/Function1;)Lscala/collection/TraversableLike$WithFilter;;
Asciz	(Lscala/collection/TraversableLike;Lscala/Function1;)Lscala/collection/TraversableLike$WithFilter;;
NameAndType	withFilter:(Lscala/collection/TraversableLike;Lscala/Function1;)Lscala/collection/TraversableLike$WithFilter;
Method	scala/collection/TraversableLike$class.withFilter:(Lscala/collection/TraversableLike;Lscala/Function1;)Lscala/collection/TraversableLike$WithFilter;
Asciz	scala/collection/immutable/NumericRange;
class	scala/collection/immutable/NumericRange
NameAndType	start:Ljava/lang/Object;
Field	scala/collection/immutable/NumericRange.start:Ljava/lang/Object;
Asciz	()TT;;
NameAndType	end:Ljava/lang/Object;
Field	scala/collection/immutable/NumericRange.end:Ljava/lang/Object;
NameAndType	step:Ljava/lang/Object;
Field	scala/collection/immutable/NumericRange.step:Ljava/lang/Object;
NameAndType	isInclusive:Z
Field	scala/collection/immutable/NumericRange.isInclusive:Z
Asciz	fail;
Asciz	(Ljava/lang/String;)Lscala/runtime/Nothing$;;
Asciz	java/lang/IllegalArgumentException;
class	java/lang/IllegalArgumentException
Asciz	<init>;
Asciz	(Ljava/lang/String;)V;
NameAndType	"<init>":(Ljava/lang/String;)V
Method	java/lang/IllegalArgumentException."<init>":(Ljava/lang/String;)V
Asciz	msg;
Asciz	limitTest;
Asciz	isEmpty;
NameAndType	isEmpty:()Z
Method	scala/collection/immutable/NumericRange.isEmpty:()Z
NameAndType	isInclusive:()Z
Method	scala/collection/immutable/NumericRange.isInclusive:()Z
NameAndType	num:Lscala/math/Integral;
Field	scala/collection/immutable/NumericRange.num:Lscala/math/Integral;
NameAndType	end:()Ljava/lang/Object;
Method	scala/collection/immutable/NumericRange.end:()Ljava/lang/Object;
Asciz	scala/math/Ordering;
class	scala/math/Ordering
Asciz	equiv;
Asciz	(Ljava/lang/Object;Ljava/lang/Object;)Z;
NameAndType	equiv:(Ljava/lang/Object;Ljava/lang/Object;)Z
InterfaceMethod	scala/math/Ordering.equiv:(Ljava/lang/Object;Ljava/lang/Object;)Z
Asciz	x;
Asciz	(TT;)Z;
Asciz	underlying;
Asciz	()Lscala/collection/immutable/IndexedSeq;;
Asciz	scala/collection/immutable/IndexedSeq$;
class	scala/collection/immutable/IndexedSeq$
Asciz	Lscala/collection/immutable/IndexedSeq$;;
NameAndType	MODULE$:Lscala/collection/immutable/IndexedSeq$;
Field	scala/collection/immutable/IndexedSeq$.MODULE$:Lscala/collection/immutable/IndexedSeq$;
Asciz	empty;
Asciz	()Lscala/collection/Traversable;;
NameAndType	empty:()Lscala/collection/Traversable;
Method	scala/collection/immutable/IndexedSeq$.empty:()Lscala/collection/Traversable;
Asciz	scala/collection/immutable/IndexedSeq;
class	scala/collection/immutable/IndexedSeq
Asciz	()Lscala/collection/immutable/IndexedSeq<TT;>;;
Asciz	by;
Asciz	(Ljava/lang/Object;)Lscala/collection/immutable/NumericRange;;
NameAndType	start:()Ljava/lang/Object;
Method	scala/collection/immutable/NumericRange.start:()Ljava/lang/Object;
Asciz	copy;
Asciz	(Ljava/lang/Object;Ljava/lang/Object;Ljava/lang/Object;)Lscala/collection/immutable/NumericRange;;
NameAndType	copy:(Ljava/lang/Object;Ljava/lang/Object;Ljava/lang/Object;)Lscala/collection/immutable/NumericRange;
Method	scala/collection/immutable/NumericRange.copy:(Ljava/lang/Object;Ljava/lang/Object;Ljava/lang/Object;)Lscala/collection/immutable/NumericRange;
Asciz	newStep;
Asciz	(TT;)Lscala/collection/immutable/NumericRange<TT;>;;
Asciz	(TT;TT;TT;)Lscala/collection/immutable/NumericRange<TT;>;;
Asciz	foreach;
Asciz	(Lscala/Function1;)V;
NameAndType	step:()Ljava/lang/Object;
Method	scala/collection/immutable/NumericRange.step:()Ljava/lang/Object;
Asciz	mkOrderingOps;
Asciz	(Ljava/lang/Object;)Lscala/math/Ordering$Ops;;
NameAndType	mkOrderingOps:(Ljava/lang/Object;)Lscala/math/Ordering$Ops;
InterfaceMethod	scala/math/Ordering.mkOrderingOps:(Ljava/lang/Object;)Lscala/math/Ordering$Ops;
Asciz	scala/math/Numeric;
class	scala/math/Numeric
Asciz	zero;
NameAndType	zero:()Ljava/lang/Object;
InterfaceMethod	scala/math/Numeric.zero:()Ljava/lang/Object;
Asciz	scala/math/Ordering$Ops;
class	scala/math/Ordering$Ops
Asciz	$greater;
NameAndType	$greater:(Ljava/lang/Object;)Z
Method	scala/math/Ordering$Ops.$greater:(Ljava/lang/Object;)Z
Asciz	$less;
NameAndType	$less:(Ljava/lang/Object;)Z
Method	scala/math/Ordering$Ops.$less:(Ljava/lang/Object;)Z
Asciz	scala/Function1;
class	scala/Function1
Asciz	apply;
Asciz	(Ljava/lang/Object;)Ljava/lang/Object;;
NameAndType	apply:(Ljava/lang/Object;)Ljava/lang/Object;
InterfaceMethod	scala/Function1.apply:(Ljava/lang/Object;)Ljava/lang/Object;
Asciz	scala/math/Integral;
class	scala/math/Integral
Asciz	mkNumericOps;
Asciz	(Ljava/lang/Object;)Lscala/math/Integral$IntegralOps;;
NameAndType	mkNumericOps:(Ljava/lang/Object;)Lscala/math/Integral$IntegralOps;
InterfaceMethod	scala/math/Integral.mkNumericOps:(Ljava/lang/Object;)Lscala/math/Integral$IntegralOps;
Asciz	scala/math/Integral$IntegralOps;
class	scala/math/Integral$IntegralOps
Asciz	$plus;
NameAndType	$plus:(Ljava/lang/Object;)Ljava/lang/Object;
Method	scala/math/Integral$IntegralOps.$plus:(Ljava/lang/Object;)Ljava/lang/Object;
NameAndType	limitTest:(Ljava/lang/Object;)Z
Method	scala/collection/immutable/NumericRange.limitTest:(Ljava/lang/Object;)Z
Asciz	i;
Asciz	<U:Ljava/lang/Object;>(Lscala/Function1<TT;TU;>;)V;
Asciz	genericLength;
Asciz	lim$1;
NameAndType	lim$1:()Ljava/lang/Object;
Method	scala/collection/immutable/NumericRange.lim$1:()Ljava/lang/Object;
Asciz	$minus;
NameAndType	$minus:(Ljava/lang/Object;)Ljava/lang/Object;
Method	scala/math/Integral$IntegralOps.$minus:(Ljava/lang/Object;)Ljava/lang/Object;
Asciz	$div$percent;
Asciz	(Ljava/lang/Object;)Lscala/Tuple2;;
NameAndType	$div$percent:(Ljava/lang/Object;)Lscala/Tuple2;
Method	scala/math/Integral$IntegralOps.$div$percent:(Ljava/lang/Object;)Lscala/Tuple2;
Asciz	scala/Tuple2;
class	scala/Tuple2
Asciz	_1;
NameAndType	_1:()Ljava/lang/Object;
Method	scala/Tuple2._1:()Ljava/lang/Object;
Asciz	_2;
NameAndType	_2:()Ljava/lang/Object;
Method	scala/Tuple2._2:()Ljava/lang/Object;
Asciz	(Ljava/lang/Object;Ljava/lang/Object;)V;
NameAndType	"<init>":(Ljava/lang/Object;Ljava/lang/Object;)V
Method	scala/Tuple2."<init>":(Ljava/lang/Object;Ljava/lang/Object;)V
Asciz	one;
NameAndType	one:()Ljava/lang/Object;
InterfaceMethod	scala/math/Numeric.one:()Ljava/lang/Object;
Asciz	scala/MatchError;
class	scala/MatchError
Asciz	toString;
NameAndType	toString:()Ljava/lang/String;
Method	scala/Tuple2.toString:()Ljava/lang/String;
Method	scala/MatchError."<init>":(Ljava/lang/String;)V
Asciz	temp1;
Asciz	Lscala/Tuple2;;
Asciz	steps;
Asciz	left;
Asciz	length;
NameAndType	genericLength:()Ljava/lang/Object;
Method	scala/collection/immutable/NumericRange.genericLength:()Ljava/lang/Object;
Asciz	toInt;
NameAndType	toInt:(Ljava/lang/Object;)I
InterfaceMethod	scala/math/Numeric.toInt:(Ljava/lang/Object;)I
Asciz	$less$eq;
NameAndType	$less$eq:(Ljava/lang/Object;)Z
Method	scala/math/Ordering$Ops.$less$eq:(Ljava/lang/Object;)Z
Asciz	$greater$eq;
NameAndType	$greater$eq:(Ljava/lang/Object;)Z
Method	scala/math/Ordering$Ops.$greater$eq:(Ljava/lang/Object;)Z
NameAndType	length:()I
Method	scala/collection/immutable/NumericRange.length:()I
Asciz	java/lang/IndexOutOfBoundsException;
class	java/lang/IndexOutOfBoundsException
Asciz	scala/runtime/BoxesRunTime;
class	scala/runtime/BoxesRunTime
Asciz	boxToInteger;
Asciz	(I)Ljava/lang/Integer;;
NameAndType	boxToInteger:(I)Ljava/lang/Integer;
Method	scala/runtime/BoxesRunTime.boxToInteger:(I)Ljava/lang/Integer;
Asciz	java/lang/Object;
class	java/lang/Object
Method	java/lang/Object.toString:()Ljava/lang/String;
Method	java/lang/IndexOutOfBoundsException."<init>":(Ljava/lang/String;)V
Asciz	fromInt;
NameAndType	fromInt:(I)Ljava/lang/Object;
InterfaceMethod	scala/math/Numeric.fromInt:(I)Ljava/lang/Object;
Asciz	$times;
NameAndType	$times:(Ljava/lang/Object;)Ljava/lang/Object;
Method	scala/math/Integral$IntegralOps.$times:(Ljava/lang/Object;)Ljava/lang/Object;
Asciz	(I)TT;;
Asciz	containsTyped;
Asciz	divides$1;
NameAndType	divides$1:(Ljava/lang/Object;Ljava/lang/Object;)Z
Method	scala/collection/immutable/NumericRange.divides$1:(Ljava/lang/Object;Ljava/lang/Object;)Z
Asciz	mapRange;
Asciz	(Lscala/Function1;Lscala/math/Integral;)Lscala/collection/immutable/NumericRange;;
Asciz	scala/collection/immutable/NumericRange$$anon$1;
class	scala/collection/immutable/NumericRange$$anon$1
Asciz	(Lscala/collection/immutable/NumericRange;Lscala/Function1;Lscala/math/Integral;Lscala/collection/immutable/NumericRange;)V;
NameAndType	"<init>":(Lscala/collection/immutable/NumericRange;Lscala/Function1;Lscala/math/Integral;Lscala/collection/immutable/NumericRange;)V
Method	scala/collection/immutable/NumericRange$$anon$1."<init>":(Lscala/collection/immutable/NumericRange;Lscala/Function1;Lscala/math/Integral;Lscala/collection/immutable/NumericRange;)V
Asciz	fm$1;
Asciz	unum$1;
Asciz	<A:Ljava/lang/Object;>(Lscala/Function1<TT;TA;>;Lscala/math/Integral<TA;>;)Lscala/collection/immutable/NumericRange<TA;>;;
Asciz	contains;
NameAndType	containsTyped:(Ljava/lang/Object;)Z
Method	scala/collection/immutable/NumericRange.containsTyped:(Ljava/lang/Object;)Z
Asciz	java/lang/Number;
class	java/lang/Number
Asciz	java/lang/Character;
class	java/lang/Character
Asciz	equals2;
NameAndType	equals2:(Ljava/lang/Object;Ljava/lang/Object;)Z
Method	scala/runtime/BoxesRunTime.equals2:(Ljava/lang/Object;Ljava/lang/Object;)Z
Asciz	equals;
NameAndType	equals:(Ljava/lang/Object;)Z
Method	java/lang/Object.equals:(Ljava/lang/Object;)Z
Asciz	(Lscala/collection/SeqLike;Ljava/lang/Object;)Z;
NameAndType	contains:(Lscala/collection/SeqLike;Ljava/lang/Object;)Z
Method	scala/collection/SeqLike$class.contains:(Lscala/collection/SeqLike;Ljava/lang/Object;)Z
Asciz	java/lang/ClassCastException;
class	java/lang/ClassCastException
Asciz	exceptionResult1;
NameAndType	bitmap$0:I
Field	scala/collection/immutable/NumericRange.bitmap$0:I
NameAndType	hashCode:(Lscala/collection/SeqLike;)I
Method	scala/collection/SeqLike$class.hashCode:(Lscala/collection/SeqLike;)I
NameAndType	hashCode:I
Field	scala/collection/immutable/NumericRange.hashCode:I
NameAndType	equals:(Lscala/collection/SeqLike;Ljava/lang/Object;)Z
Method	scala/collection/SeqLike$class.equals:(Lscala/collection/SeqLike;Ljava/lang/Object;)Z
Asciz	other;
Asciz	temp4;
Asciz	x0;
Asciz	y0;
Asciz	x1;
Asciz	y1;
Asciz	temp6;
Asciz	x2;
Asciz	y2;
Asciz	scala/collection/immutable/Range$;
class	scala/collection/immutable/Range$
Asciz	Lscala/collection/immutable/Range$;;
NameAndType	MODULE$:Lscala/collection/immutable/Range$;
Field	scala/collection/immutable/Range$.MODULE$:Lscala/collection/immutable/Range$;
Asciz	MAX_PRINT;
NameAndType	MAX_PRINT:()I
Method	scala/collection/immutable/Range$.MAX_PRINT:()I
Asciz	, ... );
String	, ... )
Asciz	);
String	)
Asciz	scala/collection/IndexedSeqLike;
class	scala/collection/IndexedSeqLike
NameAndType	take:(I)Ljava/lang/Object;
InterfaceMethod	scala/collection/IndexedSeqLike.take:(I)Ljava/lang/Object;
Asciz	scala/collection/TraversableLike;
class	scala/collection/TraversableLike
Asciz	NumericRange(;
String	NumericRange(
Asciz	, ;
String	, 
NameAndType	mkString:(Ljava/lang/String;Ljava/lang/String;Ljava/lang/String;)Ljava/lang/String;
InterfaceMethod	scala/collection/TraversableLike.mkString:(Ljava/lang/String;Ljava/lang/String;Ljava/lang/String;)Ljava/lang/String;
Asciz	endStr;
Asciz	scala/PartialFunction;
class	scala/PartialFunction
NameAndType	andThen:(Lscala/Function1;)Lscala/PartialFunction;
InterfaceMethod	scala/PartialFunction.andThen:(Lscala/Function1;)Lscala/PartialFunction;
Asciz	()Lscala/collection/IterableView;;
Asciz	scala/collection/SeqLike;
class	scala/collection/SeqLike
NameAndType	projection:()Lscala/collection/SeqView;
InterfaceMethod	scala/collection/SeqLike.projection:()Lscala/collection/SeqView;
Asciz	unboxToInt;
NameAndType	unboxToInt:(Ljava/lang/Object;)I
Method	scala/runtime/BoxesRunTime.unboxToInt:(Ljava/lang/Object;)I
NameAndType	isDefinedAt:(I)Z
InterfaceMethod	scala/collection/SeqLike.isDefinedAt:(I)Z
Asciz	(II)Lscala/collection/TraversableView;;
NameAndType	view:(II)Lscala/collection/IndexedSeqView;
InterfaceMethod	scala/collection/IndexedSeqLike.view:(II)Lscala/collection/IndexedSeqView;
Asciz	(II)Lscala/collection/IterableView;;
Asciz	(II)Lscala/collection/SeqView;;
Asciz	()Lscala/collection/TraversableView;;
NameAndType	view:()Lscala/collection/IndexedSeqView;
InterfaceMethod	scala/collection/IndexedSeqLike.view:()Lscala/collection/IndexedSeqView;
Asciz	(Ljava/lang/Object;)Lscala/collection/Traversable;;
NameAndType	toCollection:(Ljava/lang/Object;)Lscala/collection/IndexedSeq;
InterfaceMethod	scala/collection/IndexedSeqLike.toCollection:(Ljava/lang/Object;)Lscala/collection/IndexedSeq;
Asciz	(Ljava/lang/Object;)Lscala/collection/Iterable;;
Asciz	(Ljava/lang/Object;)Lscala/collection/Seq;;
NameAndType	thisCollection:()Lscala/collection/IndexedSeq;
InterfaceMethod	scala/collection/IndexedSeqLike.thisCollection:()Lscala/collection/IndexedSeq;
NameAndType	apply:(I)Ljava/lang/Object;
Method	scala/collection/immutable/NumericRange.apply:(I)Ljava/lang/Object;
Asciz	v1;
Asciz	$percent;
NameAndType	$percent:(Ljava/lang/Object;)Ljava/lang/Object;
Method	scala/math/Integral$IntegralOps.$percent:(Ljava/lang/Object;)Ljava/lang/Object;
Asciz	d;
Asciz	(Ljava/lang/Object;Ljava/lang/Object;Ljava/lang/Object;ZLscala/math/Integral;)V;
Asciz	()V;
NameAndType	"<init>":()V
Method	java/lang/Object."<init>":()V
Asciz	$init$;
Asciz	(Lscala/collection/TraversableLike;)V;
NameAndType	$init$:(Lscala/collection/TraversableLike;)V
Method	scala/collection/TraversableLike$class.$init$:(Lscala/collection/TraversableLike;)V
Asciz	(Lscala/collection/generic/GenericTraversableTemplate;)V;
NameAndType	$init$:(Lscala/collection/generic/GenericTraversableTemplate;)V
Method	scala/collection/generic/GenericTraversableTemplate$class.$init$:(Lscala/collection/generic/GenericTraversableTemplate;)V
Asciz	scala/collection/Traversable$class;
class	scala/collection/Traversable$class
Asciz	(Lscala/collection/Traversable;)V;
NameAndType	$init$:(Lscala/collection/Traversable;)V
Method	scala/collection/Traversable$class.$init$:(Lscala/collection/Traversable;)V
Asciz	scala/collection/immutable/Traversable$class;
class	scala/collection/immutable/Traversable$class
Asciz	(Lscala/collection/immutable/Traversable;)V;
NameAndType	$init$:(Lscala/collection/immutable/Traversable;)V
Method	scala/collection/immutable/Traversable$class.$init$:(Lscala/collection/immutable/Traversable;)V
Asciz	(Lscala/collection/IterableLike;)V;
NameAndType	$init$:(Lscala/collection/IterableLike;)V
Method	scala/collection/IterableLike$class.$init$:(Lscala/collection/IterableLike;)V
Asciz	scala/collection/Iterable$class;
class	scala/collection/Iterable$class
Asciz	(Lscala/collection/Iterable;)V;
NameAndType	$init$:(Lscala/collection/Iterable;)V
Method	scala/collection/Iterable$class.$init$:(Lscala/collection/Iterable;)V
Asciz	scala/collection/immutable/Iterable$class;
class	scala/collection/immutable/Iterable$class
Asciz	(Lscala/collection/immutable/Iterable;)V;
NameAndType	$init$:(Lscala/collection/immutable/Iterable;)V
Method	scala/collection/immutable/Iterable$class.$init$:(Lscala/collection/immutable/Iterable;)V
NameAndType	$init$:(Lscala/Function1;)V
Method	scala/Function1$class.$init$:(Lscala/Function1;)V
Asciz	(Lscala/PartialFunction;)V;
NameAndType	$init$:(Lscala/PartialFunction;)V
Method	scala/PartialFunction$class.$init$:(Lscala/PartialFunction;)V
Asciz	(Lscala/collection/SeqLike;)V;
NameAndType	$init$:(Lscala/collection/SeqLike;)V
Method	scala/collection/SeqLike$class.$init$:(Lscala/collection/SeqLike;)V
Asciz	scala/collection/Seq$class;
class	scala/collection/Seq$class
Asciz	(Lscala/collection/Seq;)V;
NameAndType	$init$:(Lscala/collection/Seq;)V
Method	scala/collection/Seq$class.$init$:(Lscala/collection/Seq;)V
Asciz	scala/collection/immutable/Seq$class;
class	scala/collection/immutable/Seq$class
Asciz	(Lscala/collection/immutable/Seq;)V;
NameAndType	$init$:(Lscala/collection/immutable/Seq;)V
Method	scala/collection/immutable/Seq$class.$init$:(Lscala/collection/immutable/Seq;)V
Asciz	(Lscala/collection/IndexedSeqLike;)V;
NameAndType	$init$:(Lscala/collection/IndexedSeqLike;)V
Method	scala/collection/IndexedSeqLike$class.$init$:(Lscala/collection/IndexedSeqLike;)V
Asciz	scala/collection/IndexedSeq$class;
class	scala/collection/IndexedSeq$class
Asciz	(Lscala/collection/IndexedSeq;)V;
NameAndType	$init$:(Lscala/collection/IndexedSeq;)V
Method	scala/collection/IndexedSeq$class.$init$:(Lscala/collection/IndexedSeq;)V
Asciz	(Lscala/collection/immutable/IndexedSeq;)V;
NameAndType	$init$:(Lscala/collection/immutable/IndexedSeq;)V
Method	scala/collection/immutable/IndexedSeq$class.$init$:(Lscala/collection/immutable/IndexedSeq;)V
NameAndType	equiv:(Ljava/lang/Object;)Z
Method	scala/math/Ordering$Ops.equiv:(Ljava/lang/Object;)Z
Asciz	NumericRange step cannot be zero.;
String	NumericRange step cannot be zero.
NameAndType	fail:(Ljava/lang/String;)Lscala/runtime/Nothing$;
Method	scala/collection/immutable/NumericRange.fail:(Ljava/lang/String;)Lscala/runtime/Nothing$;
int	2147483647;
Asciz	Implementation restricts ranges to Int.MaxValue elements.;
String	Implementation restricts ranges to Int.MaxValue elements.
Asciz	(TT;TT;TT;ZLscala/math/Integral<TT;>;)V;
Asciz	<T:Ljava/lang/Object;>Ljava/lang/Object;Lscala/collection/immutable/IndexedSeq<TT;>;Lscala/ScalaObject;;
Asciz	ScalaSig;
Asciz	InnerClasses;
Asciz	scala/math/Numeric$Ops;
class	scala/math/Numeric$Ops
Asciz	Ops;
Asciz	$anon$1;
Asciz	IntegralOps;
Asciz	scala/collection/immutable/NumericRange$Exclusive;
class	scala/collection/immutable/NumericRange$Exclusive
Asciz	Exclusive;
Asciz	scala/collection/immutable/NumericRange$Inclusive;
class	scala/collection/immutable/NumericRange$Inclusive
Asciz	Inclusive;
Asciz	scala/Predef$$less$colon$less;
class	scala/Predef$$less$colon$less
Asciz	scala/Predef;
class	scala/Predef
Asciz	$less$colon$less;
Asciz	scala/collection/TraversableLike$WithFilter;
class	scala/collection/TraversableLike$WithFilter
Asciz	WithFilter;
Asciz	scala/ScalaObject;
class	scala/ScalaObject
Asciz	java/io/Serializable;
class	java/io/Serializable

{
public volatile int bitmap$0;
  Signature: I

private int hashCode;
  Signature: I

private final scala.math.Integral num;
  Signature: Lscala/math/Integral;
  Signature: length = 0x2
   00 15 

private final boolean isInclusive;
  Signature: Z

private final java.lang.Object step;
  Signature: Ljava/lang/Object;
  Signature: length = 0x2
   00 1A 

private final java.lang.Object end;
  Signature: Ljava/lang/Object;
  Signature: length = 0x2
   00 1A 

private final java.lang.Object start;
  Signature: Ljava/lang/Object;
  Signature: length = 0x2
   00 1A 

public static final scala.collection.immutable.NumericRange$Inclusive inclusive(java.lang.Object, java.lang.Object, java.lang.Object, scala.math.Integral);
  Signature: (Ljava/lang/Object;Ljava/lang/Object;Ljava/lang/Object;Lscala/math/Integral;)Lscala/collection/immutable/NumericRange$Inclusive;
  Code:
   Stack=5, Locals=4, Args_size=4
	getstatic	Field scala/collection/immutable/NumericRange$.MODULE$:Lscala/collection/immutable/NumericRange$;
	aload_0
	aload_1
	aload_2
	aload_3
	invokevirtual	Method scala/collection/immutable/NumericRange$.inclusive:(Ljava/lang/Object;Ljava/lang/Object;Ljava/lang/Object;Lscala/math/Integral;)Lscala/collection/immutable/NumericRange$Inclusive;
	areturn
  Labels:
  Signature: length = 0x2
   00 0E 

public scala.collection.generic.GenericCompanion companion();
  Signature: ()Lscala/collection/generic/GenericCompanion;
  Code:
   Stack=1, Locals=1, Args_size=1
	aload_0
	invokestatic	Method scala/collection/immutable/IndexedSeq$class.companion:(Lscala/collection/immutable/IndexedSeq;)Lscala/collection/generic/GenericCompanion;
	areturn
  Labels:

public final java.lang.Object scala$collection$IndexedSeqLike$$super$reduceLeft(scala.Function2);
  Signature: (Lscala/Function2;)Ljava/lang/Object;
  Code:
   Stack=2, Locals=2, Args_size=2
	aload_0
	aload_1
	invokestatic	Method scala/collection/TraversableLike$class.reduceLeft:(Lscala/collection/TraversableLike;Lscala/Function2;)Ljava/lang/Object;
	areturn
  Labels:
  LocalVariableTable: 
   Start  Length  Slot  Name   Signature
   0      6      0    this       Lscala/collection/immutable/NumericRange;
   0      6      1    op       Lscala/Function2;


public final java.lang.Object scala$collection$IndexedSeqLike$$super$reduceRight(scala.Function2);
  Signature: (Lscala/Function2;)Ljava/lang/Object;
  Code:
   Stack=2, Locals=2, Args_size=2
	aload_0
	aload_1
	invokestatic	Method scala/collection/IterableLike$class.reduceRight:(Lscala/collection/IterableLike;Lscala/Function2;)Ljava/lang/Object;
	areturn
  Labels:
  LocalVariableTable: 
   Start  Length  Slot  Name   Signature
   0      6      0    this       Lscala/collection/immutable/NumericRange;
   0      6      1    op       Lscala/Function2;


public final java.lang.Object scala$collection$IndexedSeqLike$$super$zip(scala.collection.Iterable, scala.collection.generic.CanBuildFrom);
  Signature: (Lscala/collection/Iterable;Lscala/collection/generic/CanBuildFrom;)Ljava/lang/Object;
  Code:
   Stack=3, Locals=3, Args_size=3
	aload_0
	aload_1
	aload_2
	invokestatic	Method scala/collection/IterableLike$class.zip:(Lscala/collection/IterableLike;Lscala/collection/Iterable;Lscala/collection/generic/CanBuildFrom;)Ljava/lang/Object;
	areturn
  Labels:
  LocalVariableTable: 
   Start  Length  Slot  Name   Signature
   0      7      0    this       Lscala/collection/immutable/NumericRange;
   0      7      1    that       Lscala/collection/Iterable;
   0      7      2    bf       Lscala/collection/generic/CanBuildFrom;


public final java.lang.Object scala$collection$IndexedSeqLike$$super$head();
  Signature: ()Ljava/lang/Object;
  Code:
   Stack=1, Locals=1, Args_size=1
	aload_0
	invokestatic	Method scala/collection/IterableLike$class.head:(Lscala/collection/IterableLike;)Ljava/lang/Object;
	areturn
  Labels:

public final java.lang.Object scala$collection$IndexedSeqLike$$super$tail();
  Signature: ()Ljava/lang/Object;
  Code:
   Stack=1, Locals=1, Args_size=1
	aload_0
	invokestatic	Method scala/collection/TraversableLike$class.tail:(Lscala/collection/TraversableLike;)Ljava/lang/Object;
	areturn
  Labels:

public final java.lang.Object scala$collection$IndexedSeqLike$$super$last();
  Signature: ()Ljava/lang/Object;
  Code:
   Stack=1, Locals=1, Args_size=1
	aload_0
	invokestatic	Method scala/collection/TraversableLike$class.last:(Lscala/collection/TraversableLike;)Ljava/lang/Object;
	areturn
  Labels:

public final java.lang.Object scala$collection$IndexedSeqLike$$super$init();
  Signature: ()Ljava/lang/Object;
  Code:
   Stack=1, Locals=1, Args_size=1
	aload_0
	invokestatic	Method scala/collection/TraversableLike$class.init:(Lscala/collection/TraversableLike;)Ljava/lang/Object;
	areturn
  Labels:

public final boolean scala$collection$IndexedSeqLike$$super$sameElements(scala.collection.Iterable);
  Signature: (Lscala/collection/Iterable;)Z
  Code:
[...]
	aload_2
	aload_0
	invokespecial	Method scala/collection/immutable/NumericRange$$anon$1."<init>":(Lscala/collection/immutable/NumericRange;Lscala/Function1;Lscala/math/Integral;Lscala/collection/immutable/NumericRange;)V
	areturn
  Labels:
  LocalVariableTable: 
   Start  Length  Slot  Name   Signature
   0      12      0    this       Lscala/collection/immutable/NumericRange;
   0      12      1    fm$1       Lscala/Function1;
   0      12      2    unum$1       Lscala/math/Integral;

  Signature: length = 0x2
   03 60 

public boolean contains(java.lang.Object);
  Signature: (Ljava/lang/Object;)Z
  Code:
   Stack=2, Locals=3, Args_size=2
	aload_0
	aload_1
	invokevirtual	Method containsTyped:(Ljava/lang/Object;)Z
	ifeq	l1 // iconst_0
	aload_1
	aload_1
	if_acmpne	l2 // aload_1
	iconst_1
	goto	l3 // ifeq
l2	aload_1
	ifnonnull	l4 // aload_1
	iconst_0
	goto	l3 // ifeq
l4	aload_1
	instanceof	class java/lang/Number
	ifne	l5 // aload_1
	aload_1
	instanceof	class java/lang/Character
	ifeq	l6 // aload_1
l5	aload_1
	aload_1
	invokestatic	Method scala/runtime/BoxesRunTime.equals2:(Ljava/lang/Object;Ljava/lang/Object;)Z
	goto	l3 // ifeq
l6	aload_1
	aload_1
	invokevirtual	Method java/lang/Object.equals:(Ljava/lang/Object;)Z
l3	ifeq	l1 // iconst_0
	iconst_1
	goto	l7 // istore_2
l1	iconst_0
l7	istore_2
	goto	l8 // iload_2
	pop
	aload_0
	aload_1
	invokestatic	Method scala/collection/SeqLike$class.contains:(Lscala/collection/SeqLike;Ljava/lang/Object;)Z
	istore_2
l8	iload_2
	ireturn
  Labels:
   	l2 = 17 // aload_1
   	l4 = 25 // aload_1
   	l5 = 39 // aload_1
   	l6 = 47 // aload_1
   	l3 = 52 // ifeq
   	l1 = 59 // iconst_0
   	l7 = 60 // istore_2
   	l8 = 71 // iload_2
  Exception table:
   from   to  target type
     0    64    64   Class java/lang/ClassCastException

  LocalVariableTable: 
   Start  Length  Slot  Name   Signature
   0      73      0    this       Lscala/collection/immutable/NumericRange;
   0      73      1    x       Ljava/lang/Object;
   0      72      2    exceptionResult1       Z


public int hashCode();
  Signature: ()I
  Code:
   Stack=3, Locals=1, Args_size=1
	aload_0
	getfield	Field bitmap$0:I
	iconst_1
	iand
	iconst_0
	if_icmpne	l1 // aload_0
	aload_0
	dup
	pop
	monitorenter
	aload_0
	getfield	Field bitmap$0:I
	iconst_1
	iand
	iconst_0
	if_icmpne	l2 // aload_0
	aload_0
	aload_0
	invokestatic	Method scala/collection/SeqLike$class.hashCode:(Lscala/collection/SeqLike;)I
	putfield	Field hashCode:I
	aload_0
	aload_0
	getfield	Field bitmap$0:I
	iconst_1
	ior
	putfield	Field bitmap$0:I
l2	aload_0
	monitorexit
l1	aload_0
	getfield	Field hashCode:I
	ireturn
	aload_0
	monitorexit
	athrow
  Labels:
   	l2 = 42 // aload_0
   	l1 = 44 // aload_0
  Exception table:
   from   to  target type
    14    44    49   any

public boolean equals(java.lang.Object);
  Signature: (Ljava/lang/Object;)Z
  Code:
   Stack=2, Locals=10, Args_size=2
	aload_1
	instanceof	class scala/collection/immutable/NumericRange
	ifeq	l1 // aload_0
	aload_1
	checkcast	class scala/collection/immutable/NumericRange
	astore	7
	aload_0
	invokevirtual	Method length:()I
	aload	7
	invokevirtual	Method length:()I
	if_icmpne	l2 // iconst_0
	aload_0
	invokevirtual	Method length:()I
	istore_2
	iload_2
	tableswitch{ //0 to 1
		0: 268;
		1: 191;
		default: 52 }
	aload	7
	invokevirtual	Method start:()Ljava/lang/Object;
	aload_0
	invokevirtual	Method start:()Ljava/lang/Object;
	astore	4
	astore_3
	aload_3
	aload	4
	if_acmpne	l3 // aload_3
	iconst_1
	goto	l4 // ifeq
l3	aload_3
	ifnonnull	l5 // aload_3
	iconst_0
	goto	l4 // ifeq
l5	aload_3
	instanceof	class java/lang/Number
	ifne	l6 // aload_3
	aload_3
	instanceof	class java/lang/Character
	ifeq	l7 // aload_3
l6	aload_3
	aload	4
	invokestatic	Method scala/runtime/BoxesRunTime.equals2:(Ljava/lang/Object;Ljava/lang/Object;)Z
	goto	l4 // ifeq
l7	aload_3
	aload	4
	invokevirtual	Method java/lang/Object.equals:(Ljava/lang/Object;)Z
l4	ifeq	l8 // iconst_0
	aload	7
	invokevirtual	Method step:()Ljava/lang/Object;
	aload_0
	invokevirtual	Method step:()Ljava/lang/Object;
	astore	6
	astore	5
	aload	5
	aload	6
	if_acmpne	l9 // aload
	iconst_1
	goto	l10 // ifeq
l9	aload	5
	ifnonnull	l11 // aload
	iconst_0
	goto	l10 // ifeq
l11	aload	5
	instanceof	class java/lang/Number
	ifne	l12 // aload
	aload	5
	instanceof	class java/lang/Character
	ifeq	l13 // aload
l12	aload	5
	aload	6
	invokestatic	Method scala/runtime/BoxesRunTime.equals2:(Ljava/lang/Object;Ljava/lang/Object;)Z
	goto	l10 // ifeq
l13	aload	5
	aload	6
	invokevirtual	Method java/lang/Object.equals:(Ljava/lang/Object;)Z
l10	ifeq	l8 // iconst_0
	iconst_1
	goto	l14 // ifeq
l8	iconst_0
	goto	l14 // ifeq
	aload	7
	invokevirtual	Method start:()Ljava/lang/Object;
	aload_0
	invokevirtual	Method start:()Ljava/lang/Object;
	astore	9
	astore	8
	aload	8
	aload	9
	if_acmpne	l15 // aload
	iconst_1
	goto	l16 // ifeq
l15	aload	8
	ifnonnull	l17 // aload
	iconst_0
	goto	l16 // ifeq
l17	aload	8
	instanceof	class java/lang/Number
	ifne	l18 // aload
	aload	8
	instanceof	class java/lang/Character
	ifeq	l19 // aload
l18	aload	8
	aload	9
	invokestatic	Method scala/runtime/BoxesRunTime.equals2:(Ljava/lang/Object;Ljava/lang/Object;)Z
	goto	l16 // ifeq
l19	aload	8
	aload	9
	invokevirtual	Method java/lang/Object.equals:(Ljava/lang/Object;)Z
l16	ifeq	l20 // iconst_0
	iconst_1
	goto	l14 // ifeq
l20	iconst_0
	goto	l14 // ifeq
	iconst_1
l14	ifeq	l2 // iconst_0
	iconst_1
	goto	l21 // ireturn
l2	iconst_0
	goto	l21 // ireturn
l1	aload_0
	aload_1
	invokestatic	Method scala/collection/SeqLike$class.equals:(Lscala/collection/SeqLike;Ljava/lang/Object;)Z
l21	ireturn
  Labels:
   	l3 = 74 // aload_3
   	l5 = 82 // aload_3
   	l6 = 96 // aload_3
   	l7 = 105 // aload_3
   	l4 = 111 // ifeq
   	l9 = 138 // aload
   	l11 = 147 // aload
   	l12 = 163 // aload
   	l13 = 173 // aload
   	l10 = 180 // ifeq
   	l8 = 187 // iconst_0
   	l15 = 215 // aload
   	l17 = 224 // aload
   	l18 = 240 // aload
   	l19 = 250 // aload
   	l16 = 257 // ifeq
   	l20 = 264 // iconst_0
   	l14 = 269 // ifeq
   	l2 = 276 // iconst_0
   	l1 = 280 // aload_0
   	l21 = 285 // ireturn
  LocalVariableTable: 
   Start  Length  Slot  Name   Signature
   0      286      0    this       Lscala/collection/immutable/NumericRange;
   0      286      1    other       Ljava/lang/Object;
   30      242      2    temp4       I
   70      44      3    x0       Ljava/lang/Object;
   70      44      4    y0       Ljava/lang/Object;
   134      49      5    x1       Ljava/lang/Object;
   134      49      6    y1       Ljava/lang/Object;
   13      267      7    temp6       Lscala/collection/immutable/NumericRange;
   211      49      8    x2       Ljava/lang/Object;
   211      49      9    y2       Ljava/lang/Object;


public java.lang.String toString();
  Signature: ()Ljava/lang/String;
  Code:
   Stack=4, Locals=2, Args_size=1
	aload_0
	invokevirtual	Method length:()I
	getstatic	Field scala/collection/immutable/Range$.MODULE$:Lscala/collection/immutable/Range$;
	invokevirtual	Method scala/collection/immutable/Range$.MAX_PRINT:()I
	if_icmple	l1 // ldc_w
	ldc_w	String , ... )
	goto	l2 // astore_1
l1	ldc_w	String )
l2	astore_1
	aload_0
	getstatic	Field scala/collection/immutable/Range$.MODULE$:Lscala/collection/immutable/Range$;
	invokevirtual	Method scala/collection/immutable/Range$.MAX_PRINT:()I
	invokeinterface	InterfaceMethod scala/collection/IndexedSeqLike.take:(I)Ljava/lang/Object;
	checkcast	class scala/collection/TraversableLike
	ldc_w	String NumericRange(
	ldc_w	String , 
	aload_1
	invokeinterface	InterfaceMethod scala/collection/TraversableLike.mkString:(Ljava/lang/String;Ljava/lang/String;Ljava/lang/String;)Ljava/lang/String;
	areturn
  Labels:
   	l1 = 19 // ldc_w
   	l2 = 22 // astore_1
  LocalVariableTable: 
   Start  Length  Slot  Name   Signature
   0      51      0    this       Lscala/collection/immutable/NumericRange;
   23      27      1    endStr       Ljava/lang/String;


public scala.Function1 andThen(scala.Function1);
  Signature: (Lscala/Function1;)Lscala/Function1;
  Code:
   Stack=2, Locals=2, Args_size=2
	aload_0
	aload_1
	invokeinterface	InterfaceMethod scala/PartialFunction.andThen:(Lscala/Function1;)Lscala/PartialFunction;
	areturn
  Labels:
  LocalVariableTable: 
   Start  Length  Slot  Name   Signature
   0      8      0    this       Lscala/collection/immutable/NumericRange;
   0      8      1    g       Lscala/Function1;


public scala.collection.IterableView projection();
  Signature: ()Lscala/collection/IterableView;
  Code:
   Stack=1, Locals=1, Args_size=1
	aload_0
	invokeinterface	InterfaceMethod scala/collection/SeqLike.projection:()Lscala/collection/SeqView;
	areturn
  Labels:

public boolean isDefinedAt(java.lang.Object);
  Signature: (Ljava/lang/Object;)Z
  Code:
   Stack=2, Locals=2, Args_size=2
	aload_0
	aload_1
	invokestatic	Method scala/runtime/BoxesRunTime.unboxToInt:(Ljava/lang/Object;)I
	invokeinterface	InterfaceMethod scala/collection/SeqLike.isDefinedAt:(I)Z
	ireturn
  Labels:
  LocalVariableTable: 
   Start  Length  Slot  Name   Signature
   0      11      0    this       Lscala/collection/immutable/NumericRange;
   0      11      1    x       Ljava/lang/Object;


public scala.collection.TraversableView view(int, int);
  Signature: (II)Lscala/collection/TraversableView;
  Code:
   Stack=3, Locals=3, Args_size=3
	aload_0
	iload_1
	iload_2
	invokeinterface	InterfaceMethod scala/collection/IndexedSeqLike.view:(II)Lscala/collection/IndexedSeqView;
	areturn
  Labels:
  LocalVariableTable: 
   Start  Length  Slot  Name   Signature
   0      9      0    this       Lscala/collection/immutable/NumericRange;
   0      9      1    from       I
   0      9      2    until       I


public scala.collection.IterableView view(int, int);
  Signature: (II)Lscala/collection/IterableView;
  Code:
   Stack=3, Locals=3, Args_size=3
	aload_0
	iload_1
	iload_2
	invokeinterface	InterfaceMethod scala/collection/IndexedSeqLike.view:(II)Lscala/collection/IndexedSeqView;
	areturn
  Labels:
  LocalVariableTable: 
   Start  Length  Slot  Name   Signature
   0      9      0    this       Lscala/collection/immutable/NumericRange;
   0      9      1    from       I
   0      9      2    until       I


public scala.collection.SeqView view(int, int);
  Signature: (II)Lscala/collection/SeqView;
  Code:
   Stack=3, Locals=3, Args_size=3
	aload_0
	iload_1
	iload_2
	invokeinterface	InterfaceMethod scala/collection/IndexedSeqLike.view:(II)Lscala/collection/IndexedSeqView;
	areturn
  Labels:
  LocalVariableTable: 
   Start  Length  Slot  Name   Signature
   0      9      0    this       Lscala/collection/immutable/NumericRange;
   0      9      1    from       I
   0      9      2    until       I


public scala.collection.TraversableView view();
  Signature: ()Lscala/collection/TraversableView;
  Code:
   Stack=1, Locals=1, Args_size=1
	aload_0
	invokeinterface	InterfaceMethod scala/collection/IndexedSeqLike.view:()Lscala/collection/IndexedSeqView;
	areturn
  Labels:

public scala.collection.IterableView view();
  Signature: ()Lscala/collection/IterableView;
  Code:
   Stack=1, Locals=1, Args_size=1
	aload_0
	invokeinterface	InterfaceMethod scala/collection/IndexedSeqLike.view:()Lscala/collection/IndexedSeqView;
	areturn
  Labels:

public scala.collection.SeqView view();
  Signature: ()Lscala/collection/SeqView;
  Code:
   Stack=1, Locals=1, Args_size=1
	aload_0
	invokeinterface	InterfaceMethod scala/collection/IndexedSeqLike.view:()Lscala/collection/IndexedSeqView;
	areturn
  Labels:

public scala.collection.Traversable toCollection(java.lang.Object);
  Signature: (Ljava/lang/Object;)Lscala/collection/Traversable;
  Code:
   Stack=2, Locals=2, Args_size=2
	aload_0
	aload_1
	invokeinterface	InterfaceMethod scala/collection/IndexedSeqLike.toCollection:(Ljava/lang/Object;)Lscala/collection/IndexedSeq;
	areturn
  Labels:
  LocalVariableTable: 
   Start  Length  Slot  Name   Signature
   0      8      0    this       Lscala/collection/immutable/NumericRange;
   0      8      1    repr       Ljava/lang/Object;


public scala.collection.Iterable toCollection(java.lang.Object);
  Signature: (Ljava/lang/Object;)Lscala/collection/Iterable;
  Code:
   Stack=2, Locals=2, Args_size=2
	aload_0
	aload_1
	invokeinterface	InterfaceMethod scala/collection/IndexedSeqLike.toCollection:(Ljava/lang/Object;)Lscala/collection/IndexedSeq;
	areturn
  Labels:
  LocalVariableTable: 
   Start  Length  Slot  Name   Signature
   0      8      0    this       Lscala/collection/immutable/NumericRange;
   0      8      1    repr       Ljava/lang/Object;


public scala.collection.Seq toCollection(java.lang.Object);
  Signature: (Ljava/lang/Object;)Lscala/collection/Seq;
  Code:
   Stack=2, Locals=2, Args_size=2
	aload_0
	aload_1
	invokeinterface	InterfaceMethod scala/collection/IndexedSeqLike.toCollection:(Ljava/lang/Object;)Lscala/collection/IndexedSeq;
	areturn
  Labels:
  LocalVariableTable: 
   Start  Length  Slot  Name   Signature
   0      8      0    this       Lscala/collection/immutable/NumericRange;
   0      8      1    repr       Ljava/lang/Object;


public scala.collection.Traversable thisCollection();
  Signature: ()Lscala/collection/Traversable;
  Code:
   Stack=1, Locals=1, Args_size=1
	aload_0
	invokeinterface	InterfaceMethod scala/collection/IndexedSeqLike.thisCollection:()Lscala/collection/IndexedSeq;
	areturn
  Labels:

public scala.collection.Iterable thisCollection();
  Signature: ()Lscala/collection/Iterable;
  Code:
   Stack=1, Locals=1, Args_size=1
	aload_0
	invokeinterface	InterfaceMethod scala/collection/IndexedSeqLike.thisCollection:()Lscala/collection/IndexedSeq;
	areturn
  Labels:

public scala.collection.Seq thisCollection();
  Signature: ()Lscala/collection/Seq;
  Code:
   Stack=1, Locals=1, Args_size=1
	aload_0
	invokeinterface	InterfaceMethod scala/collection/IndexedSeqLike.thisCollection:()Lscala/collection/IndexedSeq;
	areturn
  Labels:

public java.lang.Object apply(java.lang.Object);
  Signature: (Ljava/lang/Object;)Ljava/lang/Object;
  Code:
   Stack=2, Locals=2, Args_size=2
	aload_0
	aload_1
	invokestatic	Method scala/runtime/BoxesRunTime.unboxToInt:(Ljava/lang/Object;)I
	invokevirtual	Method apply:(I)Ljava/lang/Object;
	areturn
  Labels:
  LocalVariableTable: 
   Start  Length  Slot  Name   Signature
   0      9      0    this       Lscala/collection/immutable/NumericRange;
   0      9      1    v1       Ljava/lang/Object;


private final java.lang.Object lim$1();
  Signature: ()Ljava/lang/Object;
  Code:
   Stack=2, Locals=1, Args_size=1
	aload_0
	aload_0
	invokevirtual	Method end:()Ljava/lang/Object;
	invokevirtual	Method limitTest:(Ljava/lang/Object;)Z
	ifeq	l1 // aload_0
	aload_0
	getfield	Field num:Lscala/math/Integral;
	invokeinterface	InterfaceMethod scala/math/Numeric.one:()Ljava/lang/Object;
	goto	l2 // areturn
l1	aload_0
	getfield	Field num:Lscala/math/Integral;
	invokeinterface	InterfaceMethod scala/math/Numeric.zero:()Ljava/lang/Object;
l2	areturn
  Labels:
   	l1 = 23 // aload_0
   	l2 = 32 // areturn

private final boolean divides$1(java.lang.Object, java.lang.Object);
  Signature: (Ljava/lang/Object;Ljava/lang/Object;)Z
  Code:
   Stack=3, Locals=3, Args_size=3
	aload_0
	getfield	Field num:Lscala/math/Integral;
	aload_0
	getfield	Field num:Lscala/math/Integral;
	aload_1
	invokeinterface	InterfaceMethod scala/math/Integral.mkNumericOps:(Ljava/lang/Object;)Lscala/math/Integral$IntegralOps;
	aload_2
	invokevirtual	Method scala/math/Integral$IntegralOps.$percent:(Ljava/lang/Object;)Ljava/lang/Object;
	aload_0
	getfield	Field num:Lscala/math/Integral;
	invokeinterface	InterfaceMethod scala/math/Numeric.zero:()Ljava/lang/Object;
	invokeinterface	InterfaceMethod scala/math/Ordering.equiv:(Ljava/lang/Object;Ljava/lang/Object;)Z
	ireturn
  Labels:
  LocalVariableTable: 
   Start  Length  Slot  Name   Signature
   0      33      0    this       Lscala/collection/immutable/NumericRange;
   0      33      1    d       Ljava/lang/Object;
   0      33      2    by       Ljava/lang/Object;


public scala.collection.immutable.NumericRange(java.lang.Object, java.lang.Object, java.lang.Object, boolean, scala.math.Integral);
  Signature: (Ljava/lang/Object;Ljava/lang/Object;Ljava/lang/Object;ZLscala/math/Integral;)V
  Code:
   Stack=4, Locals=6, Args_size=6
	aload_0
	aload_1
	putfield	Field start:Ljava/lang/Object;
	aload_0
	aload_2
	putfield	Field end:Ljava/lang/Object;
	aload_0
	aload_3
	putfield	Field step:Ljava/lang/Object;
	aload_0
	iload	4
	putfield	Field isInclusive:Z
	aload_0
	aload	5
	putfield	Field num:Lscala/math/Integral;
	aload_0
	invokespecial	Method java/lang/Object."<init>":()V
	aload_0
	invokestatic	Method scala/collection/TraversableLike$class.$init$:(Lscala/collection/TraversableLike;)V
	aload_0
	invokestatic	Method scala/collection/generic/GenericTraversableTemplate$class.$init$:(Lscala/collection/generic/GenericTraversableTemplate;)V
	aload_0
	invokestatic	Method scala/collection/Traversable$class.$init$:(Lscala/collection/Traversable;)V
	aload_0
	invokestatic	Method scala/collection/immutable/Traversable$class.$init$:(Lscala/collection/immutable/Traversable;)V
	aload_0
	invokestatic	Method scala/collection/IterableLike$class.$init$:(Lscala/collection/IterableLike;)V
	aload_0
	invokestatic	Method scala/collection/Iterable$class.$init$:(Lscala/collection/Iterable;)V
	aload_0
	invokestatic	Method scala/collection/immutable/Iterable$class.$init$:(Lscala/collection/immutable/Iterable;)V
	aload_0
	invokestatic	Method scala/Function1$class.$init$:(Lscala/Function1;)V
	aload_0
	invokestatic	Method scala/PartialFunction$class.$init$:(Lscala/PartialFunction;)V
	aload_0
	invokestatic	Method scala/collection/SeqLike$class.$init$:(Lscala/collection/SeqLike;)V
	aload_0
	invokestatic	Method scala/collection/Seq$class.$init$:(Lscala/collection/Seq;)V
	aload_0
	invokestatic	Method scala/collection/immutable/Seq$class.$init$:(Lscala/collection/immutable/Seq;)V
	aload_0
	invokestatic	Method scala/collection/IndexedSeqLike$class.$init$:(Lscala/collection/IndexedSeqLike;)V
	aload_0
	invokestatic	Method scala/collection/IndexedSeq$class.$init$:(Lscala/collection/IndexedSeq;)V
	aload_0
	invokestatic	Method scala/collection/immutable/IndexedSeq$class.$init$:(Lscala/collection/immutable/IndexedSeq;)V
	aload	5
	aload_3
	invokeinterface	InterfaceMethod scala/math/Ordering.mkOrderingOps:(Ljava/lang/Object;)Lscala/math/Ordering$Ops;
	aload	5
	invokeinterface	InterfaceMethod scala/math/Numeric.zero:()Ljava/lang/Object;
	invokevirtual	Method scala/math/Ordering$Ops.equiv:(Ljava/lang/Object;)Z
	ifeq	l1 // aload
	aload_0
	ldc_w	String NumericRange step cannot be zero.
	invokespecial	Method fail:(Ljava/lang/String;)Lscala/runtime/Nothing$;
	athrow
l1	aload	5
	aload_0
	invokevirtual	Method genericLength:()Ljava/lang/Object;
	invokeinterface	InterfaceMethod scala/math/Ordering.mkOrderingOps:(Ljava/lang/Object;)Lscala/math/Ordering$Ops;
	aload	5
	ldc_w	int 2147483647
	invokeinterface	InterfaceMethod scala/math/Numeric.fromInt:(I)Ljava/lang/Object;
	invokevirtual	Method scala/math/Ordering$Ops.$greater:(Ljava/lang/Object;)Z
	ifeq	l2 // return
	ldc_w	int 2147483647
	aload	5
	aload	5
	ldc_w	int 2147483647
	invokeinterface	InterfaceMethod scala/math/Numeric.fromInt:(I)Ljava/lang/Object;
	invokeinterface	InterfaceMethod scala/math/Numeric.toInt:(Ljava/lang/Object;)I
	if_icmpne	l2 // return
	aload_0
	ldc_w	String Implementation restricts ranges to Int.MaxValue elements.
	invokespecial	Method fail:(Ljava/lang/String;)Lscala/runtime/Nothing$;
	athrow
l2	return
  Labels:
   	l1 = 120 // aload
   	l2 = 178 // return
  LocalVariableTable: 
   Start  Length  Slot  Name   Signature
   0      179      0    this       Lscala/collection/immutable/NumericRange;
   0      179      1    start       Ljava/lang/Object;
   0      179      2    end       Ljava/lang/Object;
   0      179      3    step       Ljava/lang/Object;
   0      179      4    isInclusive       Z
   0      179      5    num       Lscala/math/Integral;

  Signature: length = 0x2
   04 0A 

}

