Compiled from "NumericRange.scala"
public abstract class scala.collection.immutable.NumericRange extends java.lang.Object implements scala.collection.immutable.IndexedSeq,scala.ScalaObject,java.io.Serializable
  SourceFile: "NumericRange.scala"
  Signature: length = 0x2
   03 FFFFFFE9 
  ScalaSig: length = 0x905
   05 00 FFFFFF82 3C 06 05 01 02 FFFFFF81 00 09 02 0C 4E 75 6D
   65 72 69 63 52 61 6E 67 65 0A 02 03 04 01 09 69
   6D 6D 75 74 61 62 6C 65 0A 02 05 06 01 0A 63 6F
   6C 6C 65 63 74 69 6F 6E 0A 01 07 01 05 73 63 61
   6C 61 03 00 15 02 0A 19 13 04 00 0B 13 23 10 02
   0C 11 0D 01 0D 0A 02 0E 0F 01 04 6C 61 6E 67 0A
   01 10 01 04 6A 61 76 61 09 02 12 0D 02 06 4F 62
   6A 65 63 74 10 03 14 15 17 0D 01 02 09 02 16 02
   02 0A 49 6E 64 65 78 65 64 53 65 71 10 02 18 19
   0C 00 04 08 1A 00 FFFFFF84 FFFFFF80 FFFFFF84 FFFFFFC2 00 1B 02 01 54 11
   02 1C 20 10 02 1D 1E 0D 01 06 09 02 1F 06 02 07
   4E 6F 74 68 69 6E 67 10 02 1D 21 09 02 22 06 02
   03 41 6E 79 10 02 1D 24 09 02 25 06 02 0B 53 63
   61 6C 61 4F 62 6A 65 63 74 08 08 27 00 FFFFFF82 FFFFFFC2 FFFFFF80
   FFFFFF84 00 28 01 05 73 74 61 72 74 15 01 17 08 08 2A
   00 FFFFFF82 FFFFFF80 FFFFFFA0 FFFFFF80 04 17 01 06 73 74 61 72 74 20 08
   08 2C 00 FFFFFF82 FFFFFFC2 FFFFFF80 FFFFFF84 00 28 01 03 65 6E 64 08 08
   2E 00 FFFFFF82 FFFFFF80 FFFFFFA0 FFFFFF80 04 17 01 04 65 6E 64 20 08 08
   30 00 FFFFFF82 FFFFFFC2 FFFFFF80 FFFFFF84 00 28 01 04 73 74 65 70 08 08
   32 00 FFFFFF82 FFFFFF80 FFFFFFA0 FFFFFF80 04 17 01 05 73 74 65 70 20 08
   08 34 00 FFFFFF82 FFFFFFC2 FFFFFF80 FFFFFF84 00 35 01 0B 69 73 49 6E 63
   6C 75 73 69 76 65 15 01 36 10 02 1D 37 09 02 38
   06 02 07 42 6F 6F 6C 65 61 6E 08 08 3A 00 FFFFFF82 FFFFFF80
   FFFFFFA0 FFFFFF80 04 36 01 0C 69 73 49 6E 63 6C 75 73 69 76
   65 20 08 08 3C 00 FFFFFF82 FFFFFF80 FFFFFFA0 FFFFFF80 05 3D 01 03 6E 75
   6D 10 03 3E 46 17 0E 02 3F 44 0E 02 40 43 0D 01
   41 0A 02 42 08 01 06 3C 72 6F 6F 74 3E 09 01 07
   09 02 45 06 01 07 70 61 63 6B 61 67 65 09 02 47
   48 02 08 49 6E 74 65 67 72 61 6C 0A 02 45 06 08
   05 4A 00 FFFFFF84 00 4B 01 06 3C 69 6E 69 74 3E 14 05
   4C 4F 50 51 52 16 02 4D 4E 10 03 14 00 17 08 05
   3C 49 FFFFFFC0 01 3D 08 05 27 49 FFFFFFC0 00 17 08 05 2C 49
   FFFFFFC0 00 17 08 05 30 49 FFFFFFC0 00 17 08 05 34 49 FFFFFFC0 00
   36 08 05 54 00 FFFFFF84 04 55 01 04 66 61 69 6C 14 02
   1C 56 08 05 57 53 FFFFFFC0 00 58 01 03 6D 73 67 10 02
   59 5C 0E 02 1D 5A 09 02 5B 06 01 06 50 72 65 64
   65 66 09 02 5D 5E 02 06 53 74 72 69 6E 67 0A 02
   5B 06 08 05 60 00 FFFFFF84 08 61 01 09 6C 69 6D 69 74
   54 65 73 74 15 02 62 68 14 02 63 6B 16 02 36 64
   08 05 65 5F FFFFFFC0 01 66 01 04 75 6E 75 6D 10 03 3E
   46 67 10 02 18 68 04 08 69 5F FFFFFF84 FFFFFF80 FFFFFF80 FFFFFFC2 00 6A
   02 01 55 11 02 17 20 08 05 6C 5F FFFFFFC0 00 67 01 01
   78 08 05 6E 00 FFFFFF84 08 6F 01 0A 75 6E 64 65 72 6C
   79 69 6E 67 15 01 13 08 05 71 00 FFFFFF84 00 72 01 02
   62 79 15 02 73 77 14 02 74 7A 16 02 75 78 10 03
   14 00 76 10 02 18 77 04 08 69 70 FFFFFF84 FFFFFF80 FFFFFF80 FFFFFFC2 00
   6A 08 05 65 70 FFFFFFC0 01 79 10 03 3E 46 76 08 05 7B
   70 FFFFFFC0 00 76 01 07 6E 65 77 53 74 65 70 08 05 7D
   00 FFFFFF86 00 7E 01 04 63 6F 70 79 15 03 7F FFFFFF81 03 14
   08 FFFFFF81 00 FFFFFF81 06 FFFFFF81 07 FFFFFF81 08 16 04 FFFFFF81 01 FFFFFF81 04 10
   04 14 00 FFFFFF81 02 10 03 18 FFFFFF81 03 04 08 69 7C FFFFFF84 FFFFFF80
   FFFFFF80 FFFFFFC2 00 6A 08 06 65 7C FFFFFFC0 01 FFFFFF81 05 10 04 3E 46
   FFFFFF81 02 08 06 27 7C FFFFFFC0 00 FFFFFF81 02 08 06 2C 7C FFFFFFC0 00
   FFFFFF81 02 08 06 30 7C FFFFFFC0 00 FFFFFF81 02 08 07 FFFFFF81 0A 00 FFFFFF84
   20 FFFFFF81 0B 01 07 66 6F 72 65 61 63 68 15 04 FFFFFF81 0C
   FFFFFF81 16 14 04 FFFFFF81 0D FFFFFF81 10 10 03 1D FFFFFF81 0E 09 03 FFFFFF81
   0F 06 02 04 55 6E 69 74 08 08 FFFFFF81 11 FFFFFF81 09 FFFFFFC0 00
   FFFFFF81 12 01 01 66 10 06 1D FFFFFF81 13 17 FFFFFF81 15 09 03 FFFFFF81
   14 06 02 09 46 75 6E 63 74 69 6F 6E 31 10 03 18
   FFFFFF81 16 04 09 69 FFFFFF81 09 FFFFFF84 FFFFFF80 FFFFFF80 FFFFFFC2 00 1B 08 06 FFFFFF81
   18 00 FFFFFF84 00 28 01 0D 67 65 6E 65 72 69 63 4C 65
   6E 67 74 68 08 07 FFFFFF81 1A 00 FFFFFF84 00 FFFFFF81 1B 01 06 6C
   65 6E 67 74 68 15 02 FFFFFF81 1C 10 03 1D FFFFFF81 1D 09 03
   FFFFFF81 1E 06 02 03 49 6E 74 08 06 FFFFFF81 20 00 FFFFFF84 20 35
   01 07 69 73 45 6D 70 74 79 08 07 FFFFFF81 22 00 FFFFFF84 00
   FFFFFF81 23 01 05 61 70 70 6C 79 14 03 17 FFFFFF81 24 08 08
   FFFFFF81 25 FFFFFF81 21 FFFFFFC0 00 FFFFFF81 1C 01 03 69 64 78 08 07 FFFFFF81
   27 00 FFFFFF84 00 FFFFFF81 28 01 0D 63 6F 6E 74 61 69 6E 73
   54 79 70 65 64 15 04 FFFFFF81 29 FFFFFF81 2E 14 04 FFFFFF81 2A FFFFFF81
   2F 16 03 36 FFFFFF81 2B 08 07 65 FFFFFF81 26 FFFFFFC0 01 FFFFFF81 2C 10
   04 3E 46 FFFFFF81 2D 10 03 18 FFFFFF81 2E 04 09 69 FFFFFF81 26 FFFFFF84
   FFFFFF80 FFFFFF80 FFFFFFC2 00 6A 08 07 6C FFFFFF81 26 FFFFFFC0 00 FFFFFF81 2D 08 08
   FFFFFF81 31 00 FFFFFF84 00 02 FFFFFF81 32 01 08 6D 61 70 52 61 6E
   67 65 15 04 FFFFFF81 33 FFFFFF81 37 14 04 FFFFFF81 34 FFFFFF81 3B 16 04
   FFFFFF81 35 FFFFFF81 39 10 04 14 00 FFFFFF81 36 10 03 18 FFFFFF81 37 04
   0A FFFFFF81 38 FFFFFF81 30 FFFFFF84 FFFFFF80 FFFFFF80 FFFFFFC2 00 1B 02 01 41 08 07
   65 FFFFFF81 30 FFFFFFC0 01 FFFFFF81 3A 10 04 3E 46 FFFFFF81 36 08 08 FFFFFF81
   3C FFFFFF81 30 FFFFFFC0 00 FFFFFF81 3D 01 02 66 6D 10 06 1D FFFFFF81 13
   17 FFFFFF81 36 08 07 FFFFFF81 3F 00 FFFFFF84 20 FFFFFF81 40 01 08 63 6F
   6E 74 61 69 6E 73 14 03 36 FFFFFF81 41 08 06 6C FFFFFF81 3E
   FFFFFFC0 00 20 08 0A FFFFFF81 43 00 FFFFFF88 FFFFFFC2 FFFFFF80 FFFFFF84 20 FFFFFF81 1B 01
   08 68 61 73 68 43 6F 64 65 08 0A FFFFFF81 45 00 FFFFFF88 FFFFFF80
   FFFFFFA0 FFFFFFA0 04 FFFFFF81 1C 01 09 68 61 73 68 43 6F 64 65 20
   08 07 FFFFFF81 47 00 FFFFFF84 20 FFFFFF81 48 01 06 65 71 75 61 6C
   73 14 03 36 FFFFFF81 49 08 07 FFFFFF81 4A FFFFFF81 46 FFFFFFC0 00 20 01
   05 6F 74 68 65 72 08 07 FFFFFF81 4C 00 FFFFFF84 20 FFFFFF81 4D 01
   08 74 6F 53 74 72 69 6E 67 14 01 58 28 03 00 FFFFFF81
   4F 10 03 1D FFFFFF81 50 09 03 FFFFFF81 51 06 02 0C 73 65 72
   69 61 6C 69 7A 61 62 6C 65 07 07 FFFFFF81 53 02 FFFFFF88 02
   FFFFFF81 54 01 0C 4E 75 6D 65 72 69 63 52 61 6E 67 65
   10 03 14 FFFFFF81 55 06 09 01 02 FFFFFF84 FFFFFF80 FFFFFF80 FFFFFF88 02 FFFFFF81 56
   13 04 FFFFFF81 55 0B 23 08 07 4A FFFFFF81 55 FFFFFF84 00 FFFFFF81 58 14
   02 FFFFFF81 54 06 07 FFFFFF81 5A FFFFFF81 55 00 FFFFFF81 5B 02 09 49 6E
   63 6C 75 73 69 76 65 15 04 FFFFFF81 5C FFFFFF81 5F 13 05 FFFFFF81
   59 FFFFFF81 5D 23 10 04 14 00 FFFFFF81 5E 10 03 18 FFFFFF81 5F 04
   09 1A FFFFFF81 59 FFFFFF84 FFFFFF80 FFFFFF80 FFFFFFC2 00 1B 08 0B 27 FFFFFF81 59 FFFFFF82
   FFFFFF80 FFFFFFA0 FFFFFF80 04 FFFFFF81 5E 26 08 0B 2C FFFFFF81 59 FFFFFF82 FFFFFF80 FFFFFFA0 FFFFFF80
   04 FFFFFF81 5E 2B 08 0B 30 FFFFFF81 59 FFFFFF82 FFFFFF80 FFFFFFA0 FFFFFF80 04 FFFFFF81 5E
   2F 08 0A 3C FFFFFF81 59 FFFFFF82 FFFFFF80 FFFFFFA0 FFFFFF80 05 FFFFFF81 64 10 04 3E
   46 FFFFFF81 5E 08 07 4A FFFFFF81 59 FFFFFF84 00 FFFFFF81 66 14 08 FFFFFF81 67
   FFFFFF81 6B FFFFFF81 6C FFFFFF81 6D 16 04 FFFFFF81 68 FFFFFF81 6A 10 06 FFFFFF81 69
   FFFFFF81 59 FFFFFF81 5E 0D 02 FFFFFF81 55 08 07 3C FFFFFF81 65 FFFFFFC0 01 FFFFFF81
   64 08 07 27 FFFFFF81 65 FFFFFFC0 00 FFFFFF81 5E 08 07 2C FFFFFF81 65 FFFFFFC0
   00 FFFFFF81 5E 08 07 30 FFFFFF81 65 FFFFFFC0 00 FFFFFF81 5E 08 07 7D FFFFFF81
   59 FFFFFF84 00 FFFFFF81 6F 15 04 FFFFFF81 70 FFFFFF81 74 14 08 FFFFFF81 71 FFFFFF81
   78 FFFFFF81 79 FFFFFF81 7A 16 04 FFFFFF81 72 FFFFFF81 76 10 06 FFFFFF81 69 FFFFFF81
   59 FFFFFF81 73 10 03 18 FFFFFF81 74 04 0A 69 FFFFFF81 6E FFFFFF84 FFFFFF80 FFFFFF80
   FFFFFFC2 00 FFFFFF81 75 11 03 FFFFFF81 5E 20 08 07 65 FFFFFF81 6E FFFFFFC0 01
   FFFFFF81 77 10 04 3E 46 FFFFFF81 73 08 07 27 FFFFFF81 6E FFFFFFC0 00 FFFFFF81
   73 08 07 2C FFFFFF81 6E FFFFFFC0 00 FFFFFF81 73 08 07 30 FFFFFF81 6E FFFFFFC0
   00 FFFFFF81 73 08 08 FFFFFF81 7C FFFFFF81 59 FFFFFF84 00 FFFFFF81 7D 01 09 65
   78 63 6C 75 73 69 76 65 15 02 FFFFFF81 7E 10 06 FFFFFF81 69
   FFFFFF81 7F FFFFFF81 5E 06 07 FFFFFF82 00 FFFFFF81 55 00 FFFFFF82 01 02 09 45
   78 63 6C 75 73 69 76 65 15 04 FFFFFF82 02 FFFFFF82 05 13 05
   FFFFFF81 7F FFFFFF82 03 23 10 04 14 00 FFFFFF82 04 10 03 18 FFFFFF82 05
   04 09 1A FFFFFF81 7F FFFFFF84 FFFFFF80 FFFFFF80 FFFFFFC2 00 1B 08 0B 27 FFFFFF81 7F
   FFFFFF82 FFFFFF80 FFFFFFA0 FFFFFF80 04 FFFFFF82 04 26 08 0B 2C FFFFFF81 7F FFFFFF82 FFFFFF80 FFFFFFA0
   FFFFFF80 04 FFFFFF82 04 2B 08 0B 30 FFFFFF81 7F FFFFFF82 FFFFFF80 FFFFFFA0 FFFFFF80 04 FFFFFF82
   04 2F 08 0A 3C FFFFFF81 7F FFFFFF82 FFFFFF80 FFFFFFA0 FFFFFF80 05 FFFFFF82 0A 10 04
   3E 46 FFFFFF82 04 08 07 4A FFFFFF81 7F FFFFFF84 00 FFFFFF82 0C 14 08 FFFFFF82
   0D FFFFFF82 10 FFFFFF82 11 FFFFFF82 12 16 04 FFFFFF82 0E FFFFFF82 0F 10 06 FFFFFF81
   69 FFFFFF81 7F FFFFFF82 04 08 07 3C FFFFFF82 0B FFFFFFC0 01 FFFFFF82 0A 08 07
   27 FFFFFF82 0B FFFFFFC0 00 FFFFFF82 04 08 07 2C FFFFFF82 0B FFFFFFC0 00 FFFFFF82 04
   08 07 30 FFFFFF82 0B FFFFFFC0 00 FFFFFF82 04 08 07 7D FFFFFF81 7F FFFFFF84 00
   FFFFFF82 14 15 04 FFFFFF82 15 FFFFFF82 19 14 08 FFFFFF82 16 FFFFFF82 1D FFFFFF82 1E
   FFFFFF82 1F 16 04 FFFFFF82 17 FFFFFF82 1B 10 06 FFFFFF81 69 FFFFFF81 7F FFFFFF82 18
   10 03 18 FFFFFF82 19 04 0A 69 FFFFFF82 13 FFFFFF84 FFFFFF80 FFFFFF80 FFFFFFC2 00 FFFFFF82
   1A 11 03 FFFFFF82 04 20 08 07 65 FFFFFF82 13 FFFFFFC0 01 FFFFFF82 1C 10
   04 3E 46 FFFFFF82 18 08 07 27 FFFFFF82 13 FFFFFFC0 00 FFFFFF82 18 08 07
   2C FFFFFF82 13 FFFFFFC0 00 FFFFFF82 18 08 07 30 FFFFFF82 13 FFFFFFC0 00 FFFFFF82 18
   08 08 FFFFFF82 21 FFFFFF81 7F FFFFFF84 00 FFFFFF82 22 01 09 69 6E 63 6C
   75 73 69 76 65 15 02 FFFFFF82 23 10 06 FFFFFF81 69 FFFFFF81 59 FFFFFF82
   04 08 08 FFFFFF81 22 FFFFFF81 55 FFFFFF84 00 FFFFFF82 25 15 04 FFFFFF82 26 FFFFFF82
   2A 14 08 FFFFFF82 27 FFFFFF82 2D FFFFFF82 2E FFFFFF82 2F 16 04 FFFFFF82 28 FFFFFF82
   2B 10 06 FFFFFF81 69 FFFFFF81 7F FFFFFF82 29 10 03 18 FFFFFF82 2A 04 09
   1A FFFFFF82 24 FFFFFF84 FFFFFF80 FFFFFF80 FFFFFFC2 00 1B 08 07 3C FFFFFF82 24 FFFFFFC0 01
   FFFFFF82 2C 10 04 3E 46 FFFFFF82 29 08 07 27 FFFFFF82 24 FFFFFFC0 00 FFFFFF82
   29 08 07 2C FFFFFF82 24 FFFFFFC0 00 FFFFFF82 29 08 07 30 FFFFFF82 24 FFFFFFC0
   00 FFFFFF82 29 08 08 FFFFFF82 21 FFFFFF81 55 FFFFFF84 00 FFFFFF82 31 15 04 FFFFFF82
   32 FFFFFF82 36 14 08 FFFFFF82 33 FFFFFF82 39 FFFFFF82 3A FFFFFF82 3B 16 04 FFFFFF82
   34 FFFFFF82 37 10 06 FFFFFF81 69 FFFFFF81 59 FFFFFF82 35 10 03 18 FFFFFF82 36
   04 09 1A FFFFFF82 30 FFFFFF84 FFFFFF80 FFFFFF80 FFFFFFC2 00 1B 08 07 3C FFFFFF82 30
   FFFFFFC0 01 FFFFFF82 38 10 04 3E 46 FFFFFF82 35 08 07 27 FFFFFF82 30 FFFFFFC0
   00 FFFFFF82 35 08 07 2C FFFFFF82 30 FFFFFFC0 00 FFFFFF82 35 08 07 30 FFFFFF82
   30 FFFFFFC0 00 FFFFFF82 35 
  InnerClass: 
   public #1006= #1005 of #132; //Ops=class scala/math/Numeric$Ops of class scala/math/Numeric
   public #1006= #138 of #126; //Ops=class scala/math/Ordering$Ops of class scala/math/Ordering
   public final #1007= #341 of #33; //$anon$1=class scala/collection/immutable/NumericRange$$anon$1 of class scala/collection/immutable/NumericRange
   public #1008= #179 of #173; //IntegralOps=class scala/math/Integral$IntegralOps of class scala/math/Integral
   public #1011= #1010 of #33; //Exclusive=class scala/collection/immutable/NumericRange$Exclusive of class scala/collection/immutable/NumericRange
   public #1014= #1013 of #33; //Inclusive=class scala/collection/immutable/NumericRange$Inclusive of class scala/collection/immutable/NumericRange
   public #1017= #1016 of #272; //WithFilter=class scala/collection/TraversableLike$WithFilter of class scala/collection/TraversableLike
  minor version: 0
  major version: 49
  Constant pool:
const #1 = Asciz	SourceFile;
const #2 = Asciz	NumericRange.scala;
const #3 = Asciz	inclusive;
const #4 = Asciz	(Ljava/lang/Object;Ljava/lang/Object;Ljava/lang/Object;Lscala/math/Integral;)Lscala/collection/immutable/NumericRange$Inclusive;;
const #5 = Asciz	Code;
const #6 = Asciz	scala/collection/immutable/NumericRange$;
const #7 = class	#6;	//  scala/collection/immutable/NumericRange$
const #8 = Asciz	MODULE$;
const #9 = Asciz	Lscala/collection/immutable/NumericRange$;;
const #10 = NameAndType	#8:#9;//  MODULE$:Lscala/collection/immutable/NumericRange$;
const #11 = Field	#7.#10;	//  scala/collection/immutable/NumericRange$.MODULE$:Lscala/collection/immutable/NumericRange$;
const #12 = NameAndType	#3:#4;//  inclusive:(Ljava/lang/Object;Ljava/lang/Object;Ljava/lang/Object;Lscala/math/Integral;)Lscala/collection/immutable/NumericRange$Inclusive;
const #13 = Method	#7.#12;	//  scala/collection/immutable/NumericRange$.inclusive:(Ljava/lang/Object;Ljava/lang/Object;Ljava/lang/Object;Lscala/math/Integral;)Lscala/collection/immutable/NumericRange$Inclusive;
const #14 = Asciz	<T:Ljava/lang/Object;>(TT;TT;TT;Lscala/math/Integral<TT;>;)Lscala/collection/immutable/NumericRange$Inclusive<TT;>;;
const #15 = Asciz	Signature;
const #16 = Asciz	bitmap$0;
const #17 = Asciz	I;
const #18 = Asciz	hashCode;
const #19 = Asciz	num;
const #20 = Asciz	Lscala/math/Integral;;
const #21 = Asciz	Lscala/math/Integral<TT;>;;
const #22 = Asciz	isInclusive;
const #23 = Asciz	Z;
const #24 = Asciz	step;
const #25 = Asciz	Ljava/lang/Object;;
const #26 = Asciz	TT;;
const #27 = Asciz	end;
const #28 = Asciz	start;
const #29 = Asciz	<init>;
const #30 = Asciz	(Ljava/lang/Object;Ljava/lang/Object;Ljava/lang/Object;ZLscala/math/Integral;)V;
const #31 = Asciz	LineNumberTable;
const #32 = Asciz	scala/collection/immutable/NumericRange;
const #33 = class	#32;	//  scala/collection/immutable/NumericRange
const #34 = NameAndType	#28:#25;//  start:Ljava/lang/Object;
const #35 = Field	#33.#34;	//  scala/collection/immutable/NumericRange.start:Ljava/lang/Object;
const #36 = NameAndType	#27:#25;//  end:Ljava/lang/Object;
const #37 = Field	#33.#36;	//  scala/collection/immutable/NumericRange.end:Ljava/lang/Object;
const #38 = NameAndType	#24:#25;//  step:Ljava/lang/Object;
const #39 = Field	#33.#38;	//  scala/collection/immutable/NumericRange.step:Ljava/lang/Object;
const #40 = NameAndType	#22:#23;//  isInclusive:Z
const #41 = Field	#33.#40;	//  scala/collection/immutable/NumericRange.isInclusive:Z
const #42 = NameAndType	#19:#20;//  num:Lscala/math/Integral;
const #43 = Field	#33.#42;	//  scala/collection/immutable/NumericRange.num:Lscala/math/Integral;
const #44 = Asciz	java/lang/Object;
const #45 = class	#44;	//  java/lang/Object
const #46 = Asciz	()V;
const #47 = NameAndType	#29:#46;//  "<init>":()V
const #48 = Method	#45.#47;	//  java/lang/Object."<init>":()V
const #49 = Asciz	scala/collection/TraversableLike$class;
const #50 = class	#49;	//  scala/collection/TraversableLike$class
const #51 = Asciz	$init$;
const #52 = Asciz	(Lscala/collection/TraversableLike;)V;
const #53 = NameAndType	#51:#52;//  $init$:(Lscala/collection/TraversableLike;)V
const #54 = Method	#50.#53;	//  scala/collection/TraversableLike$class.$init$:(Lscala/collection/TraversableLike;)V
const #55 = Asciz	scala/collection/generic/GenericTraversableTemplate$class;
const #56 = class	#55;	//  scala/collection/generic/GenericTraversableTemplate$class
const #57 = Asciz	(Lscala/collection/generic/GenericTraversableTemplate;)V;
const #58 = NameAndType	#51:#57;//  $init$:(Lscala/collection/generic/GenericTraversableTemplate;)V
const #59 = Method	#56.#58;	//  scala/collection/generic/GenericTraversableTemplate$class.$init$:(Lscala/collection/generic/GenericTraversableTemplate;)V
const #60 = Asciz	scala/collection/Traversable$class;
const #61 = class	#60;	//  scala/collection/Traversable$class
const #62 = Asciz	(Lscala/collection/Traversable;)V;
const #63 = NameAndType	#51:#62;//  $init$:(Lscala/collection/Traversable;)V
const #64 = Method	#61.#63;	//  scala/collection/Traversable$class.$init$:(Lscala/collection/Traversable;)V
const #65 = Asciz	scala/collection/immutable/Traversable$class;
const #66 = class	#65;	//  scala/collection/immutable/Traversable$class
const #67 = Asciz	(Lscala/collection/immutable/Traversable;)V;
const #68 = NameAndType	#51:#67;//  $init$:(Lscala/collection/immutable/Traversable;)V
const #69 = Method	#66.#68;	//  scala/collection/immutable/Traversable$class.$init$:(Lscala/collection/immutable/Traversable;)V
const #70 = Asciz	scala/collection/IterableLike$class;
const #71 = class	#70;	//  scala/collection/IterableLike$class
const #72 = Asciz	(Lscala/collection/IterableLike;)V;
const #73 = NameAndType	#51:#72;//  $init$:(Lscala/collection/IterableLike;)V
const #74 = Method	#71.#73;	//  scala/collection/IterableLike$class.$init$:(Lscala/collection/IterableLike;)V
const #75 = Asciz	scala/collection/Iterable$class;
const #76 = class	#75;	//  scala/collection/Iterable$class
const #77 = Asciz	(Lscala/collection/Iterable;)V;
const #78 = NameAndType	#51:#77;//  $init$:(Lscala/collection/Iterable;)V
const #79 = Method	#76.#78;	//  scala/collection/Iterable$class.$init$:(Lscala/collection/Iterable;)V
const #80 = Asciz	scala/collection/immutable/Iterable$class;
const #81 = class	#80;	//  scala/collection/immutable/Iterable$class
const #82 = Asciz	(Lscala/collection/immutable/Iterable;)V;
const #83 = NameAndType	#51:#82;//  $init$:(Lscala/collection/immutable/Iterable;)V
const #84 = Method	#81.#83;	//  scala/collection/immutable/Iterable$class.$init$:(Lscala/collection/immutable/Iterable;)V
const #85 = Asciz	scala/Function1$class;
const #86 = class	#85;	//  scala/Function1$class
const #87 = Asciz	(Lscala/Function1;)V;
const #88 = NameAndType	#51:#87;//  $init$:(Lscala/Function1;)V
const #89 = Method	#86.#88;	//  scala/Function1$class.$init$:(Lscala/Function1;)V
const #90 = Asciz	scala/PartialFunction$class;
const #91 = class	#90;	//  scala/PartialFunction$class
const #92 = Asciz	(Lscala/PartialFunction;)V;
const #93 = NameAndType	#51:#92;//  $init$:(Lscala/PartialFunction;)V
const #94 = Method	#91.#93;	//  scala/PartialFunction$class.$init$:(Lscala/PartialFunction;)V
const #95 = Asciz	scala/collection/SeqLike$class;
const #96 = class	#95;	//  scala/collection/SeqLike$class
const #97 = Asciz	(Lscala/collection/SeqLike;)V;
const #98 = NameAndType	#51:#97;//  $init$:(Lscala/collection/SeqLike;)V
const #99 = Method	#96.#98;	//  scala/collection/SeqLike$class.$init$:(Lscala/collection/SeqLike;)V
const #100 = Asciz	scala/collection/Seq$class;
const #101 = class	#100;	//  scala/collection/Seq$class
const #102 = Asciz	(Lscala/collection/Seq;)V;
const #103 = NameAndType	#51:#102;//  $init$:(Lscala/collection/Seq;)V
const #104 = Method	#101.#103;	//  scala/collection/Seq$class.$init$:(Lscala/collection/Seq;)V
const #105 = Asciz	scala/collection/immutable/Seq$class;
const #106 = class	#105;	//  scala/collection/immutable/Seq$class
const #107 = Asciz	(Lscala/collection/immutable/Seq;)V;
const #108 = NameAndType	#51:#107;//  $init$:(Lscala/collection/immutable/Seq;)V
const #109 = Method	#106.#108;	//  scala/collection/immutable/Seq$class.$init$:(Lscala/collection/immutable/Seq;)V
const #110 = Asciz	scala/collection/IndexedSeqLike$class;
const #111 = class	#110;	//  scala/collection/IndexedSeqLike$class
const #112 = Asciz	(Lscala/collection/IndexedSeqLike;)V;
const #113 = NameAndType	#51:#112;//  $init$:(Lscala/collection/IndexedSeqLike;)V
const #114 = Method	#111.#113;	//  scala/collection/IndexedSeqLike$class.$init$:(Lscala/collection/IndexedSeqLike;)V
const #115 = Asciz	scala/collection/IndexedSeq$class;
const #116 = class	#115;	//  scala/collection/IndexedSeq$class
const #117 = Asciz	(Lscala/collection/IndexedSeq;)V;
const #118 = NameAndType	#51:#117;//  $init$:(Lscala/collection/IndexedSeq;)V
const #119 = Method	#116.#118;	//  scala/collection/IndexedSeq$class.$init$:(Lscala/collection/IndexedSeq;)V
const #120 = Asciz	scala/collection/immutable/IndexedSeq$class;
const #121 = class	#120;	//  scala/collection/immutable/IndexedSeq$class
const #122 = Asciz	(Lscala/collection/immutable/IndexedSeq;)V;
const #123 = NameAndType	#51:#122;//  $init$:(Lscala/collection/immutable/IndexedSeq;)V
const #124 = Method	#121.#123;	//  scala/collection/immutable/IndexedSeq$class.$init$:(Lscala/collection/immutable/IndexedSeq;)V
const #125 = Asciz	scala/math/Ordering;
const #126 = class	#125;	//  scala/math/Ordering
const #127 = Asciz	mkOrderingOps;
const #128 = Asciz	(Ljava/lang/Object;)Lscala/math/Ordering$Ops;;
const #129 = NameAndType	#127:#128;//  mkOrderingOps:(Ljava/lang/Object;)Lscala/math/Ordering$Ops;
const #130 = InterfaceMethod	#126.#129;	//  scala/math/Ordering.mkOrderingOps:(Ljava/lang/Object;)Lscala/math/Ordering$Ops;
const #131 = Asciz	scala/math/Numeric;
const #132 = class	#131;	//  scala/math/Numeric
const #133 = Asciz	zero;
const #134 = Asciz	()Ljava/lang/Object;;
const #135 = NameAndType	#133:#134;//  zero:()Ljava/lang/Object;
const #136 = InterfaceMethod	#132.#135;	//  scala/math/Numeric.zero:()Ljava/lang/Object;
const #137 = Asciz	scala/math/Ordering$Ops;
const #138 = class	#137;	//  scala/math/Ordering$Ops
const #139 = Asciz	equiv;
const #140 = Asciz	(Ljava/lang/Object;)Z;
const #141 = NameAndType	#139:#140;//  equiv:(Ljava/lang/Object;)Z
const #142 = Method	#138.#141;	//  scala/math/Ordering$Ops.equiv:(Ljava/lang/Object;)Z
const #143 = Asciz	NumericRange step cannot be zero.;
const #144 = String	#143;	//  NumericRange step cannot be zero.
const #145 = Asciz	fail;
const #146 = Asciz	(Ljava/lang/String;)Lscala/runtime/Nothing$;;
const #147 = NameAndType	#145:#146;//  fail:(Ljava/lang/String;)Lscala/runtime/Nothing$;
const #148 = Method	#33.#147;	//  scala/collection/immutable/NumericRange.fail:(Ljava/lang/String;)Lscala/runtime/Nothing$;
const #149 = Asciz	genericLength;
const #150 = NameAndType	#149:#134;//  genericLength:()Ljava/lang/Object;
const #151 = Method	#33.#150;	//  scala/collection/immutable/NumericRange.genericLength:()Ljava/lang/Object;
const #152 = int	2147483647;
const #153 = Asciz	fromInt;
const #154 = Asciz	(I)Ljava/lang/Object;;
const #155 = NameAndType	#153:#154;//  fromInt:(I)Ljava/lang/Object;
const #156 = InterfaceMethod	#132.#155;	//  scala/math/Numeric.fromInt:(I)Ljava/lang/Object;
const #157 = Asciz	$greater;
const #158 = NameAndType	#157:#140;//  $greater:(Ljava/lang/Object;)Z
const #159 = Method	#138.#158;	//  scala/math/Ordering$Ops.$greater:(Ljava/lang/Object;)Z
const #160 = Asciz	toInt;
const #161 = Asciz	(Ljava/lang/Object;)I;
const #162 = NameAndType	#160:#161;//  toInt:(Ljava/lang/Object;)I
const #163 = InterfaceMethod	#132.#162;	//  scala/math/Numeric.toInt:(Ljava/lang/Object;)I
const #164 = Asciz	Implementation restricts ranges to Int.MaxValue elements.;
const #165 = String	#164;	//  Implementation restricts ranges to Int.MaxValue elements.
const #166 = Asciz	this;
const #167 = Asciz	Lscala/collection/immutable/NumericRange;;
const #168 = Asciz	LocalVariableTable;
const #169 = Asciz	(TT;TT;TT;ZLscala/math/Integral<TT;>;)V;
const #170 = Asciz	divides$1;
const #171 = Asciz	(Ljava/lang/Object;Ljava/lang/Object;Lscala/math/Integral;)Z;
const #172 = Asciz	scala/math/Integral;
const #173 = class	#172;	//  scala/math/Integral
const #174 = Asciz	mkNumericOps;
const #175 = Asciz	(Ljava/lang/Object;)Lscala/math/Integral$IntegralOps;;
const #176 = NameAndType	#174:#175;//  mkNumericOps:(Ljava/lang/Object;)Lscala/math/Integral$IntegralOps;
const #177 = InterfaceMethod	#173.#176;	//  scala/math/Integral.mkNumericOps:(Ljava/lang/Object;)Lscala/math/Integral$IntegralOps;
const #178 = Asciz	scala/math/Integral$IntegralOps;
const #179 = class	#178;	//  scala/math/Integral$IntegralOps
const #180 = Asciz	$percent;
const #181 = Asciz	(Ljava/lang/Object;)Ljava/lang/Object;;
const #182 = NameAndType	#180:#181;//  $percent:(Ljava/lang/Object;)Ljava/lang/Object;
const #183 = Method	#179.#182;	//  scala/math/Integral$IntegralOps.$percent:(Ljava/lang/Object;)Ljava/lang/Object;
const #184 = Asciz	(Ljava/lang/Object;Ljava/lang/Object;)Z;
const #185 = NameAndType	#139:#184;//  equiv:(Ljava/lang/Object;Ljava/lang/Object;)Z
const #186 = InterfaceMethod	#126.#185;	//  scala/math/Ordering.equiv:(Ljava/lang/Object;Ljava/lang/Object;)Z
const #187 = Asciz	d;
const #188 = Asciz	by;
const #189 = Asciz	lim$1;
const #190 = NameAndType	#27:#134;//  end:()Ljava/lang/Object;
const #191 = Method	#33.#190;	//  scala/collection/immutable/NumericRange.end:()Ljava/lang/Object;
const #192 = Asciz	limitTest;
const #193 = Asciz	(Ljava/lang/Object;Lscala/math/Integral;)Z;
const #194 = NameAndType	#192:#193;//  limitTest:(Ljava/lang/Object;Lscala/math/Integral;)Z
const #195 = Method	#33.#194;	//  scala/collection/immutable/NumericRange.limitTest:(Ljava/lang/Object;Lscala/math/Integral;)Z
const #196 = Asciz	one;
const #197 = NameAndType	#196:#134;//  one:()Ljava/lang/Object;
const #198 = InterfaceMethod	#132.#197;	//  scala/math/Numeric.one:()Ljava/lang/Object;
const #199 = Asciz	apply;
const #200 = Asciz	scala/runtime/BoxesRunTime;
const #201 = class	#200;	//  scala/runtime/BoxesRunTime
const #202 = Asciz	unboxToInt;
const #203 = NameAndType	#202:#161;//  unboxToInt:(Ljava/lang/Object;)I
const #204 = Method	#201.#203;	//  scala/runtime/BoxesRunTime.unboxToInt:(Ljava/lang/Object;)I
const #205 = NameAndType	#199:#154;//  apply:(I)Ljava/lang/Object;
const #206 = Method	#33.#205;	//  scala/collection/immutable/NumericRange.apply:(I)Ljava/lang/Object;
const #207 = Asciz	v1;
const #208 = Asciz	thisCollection;
const #209 = Asciz	()Lscala/collection/Seq;;
const #210 = Asciz	scala/collection/IndexedSeqLike;
const #211 = class	#210;	//  scala/collection/IndexedSeqLike
const #212 = Asciz	()Lscala/collection/IndexedSeq;;
const #213 = NameAndType	#208:#212;//  thisCollection:()Lscala/collection/IndexedSeq;
const #214 = InterfaceMethod	#211.#213;	//  scala/collection/IndexedSeqLike.thisCollection:()Lscala/collection/IndexedSeq;
const #215 = Asciz	()Lscala/collection/Iterable;;
const #216 = Asciz	()Lscala/collection/Traversable;;
const #217 = Asciz	toCollection;
const #218 = Asciz	(Ljava/lang/Object;)Lscala/collection/Seq;;
const #219 = Asciz	(Ljava/lang/Object;)Lscala/collection/IndexedSeq;;
const #220 = NameAndType	#217:#219;//  toCollection:(Ljava/lang/Object;)Lscala/collection/IndexedSeq;
const #221 = InterfaceMethod	#211.#220;	//  scala/collection/IndexedSeqLike.toCollection:(Ljava/lang/Object;)Lscala/collection/IndexedSeq;
const #222 = Asciz	repr;
const #223 = Asciz	(Ljava/lang/Object;)Lscala/collection/Iterable;;
const #224 = Asciz	(Ljava/lang/Object;)Lscala/collection/Traversable;;
const #225 = Asciz	view;
const #226 = Asciz	(II)Lscala/collection/SeqView;;
const #227 = Asciz	(II)Lscala/collection/IndexedSeqView;;
const #228 = NameAndType	#225:#227;//  view:(II)Lscala/collection/IndexedSeqView;
const #229 = InterfaceMethod	#211.#228;	//  scala/collection/IndexedSeqLike.view:(II)Lscala/collection/IndexedSeqView;
const #230 = Asciz	from;
const #231 = Asciz	until;
const #232 = Asciz	(II)Lscala/collection/IterableView;;
const #233 = Asciz	(II)Lscala/collection/TraversableView;;
const #234 = Asciz	isDefinedAt;
const #235 = Asciz	scala/collection/SeqLike;
const #236 = class	#235;	//  scala/collection/SeqLike
const #237 = Asciz	(I)Z;
const #238 = NameAndType	#234:#237;//  isDefinedAt:(I)Z
const #239 = InterfaceMethod	#236.#238;	//  scala/collection/SeqLike.isDefinedAt:(I)Z
const #240 = Asciz	x;
const #241 = Asciz	andThen;
const #242 = Asciz	(Lscala/Function1;)Lscala/Function1;;
const #243 = Asciz	scala/PartialFunction;
const #244 = class	#243;	//  scala/PartialFunction
const #245 = Asciz	(Lscala/Function1;)Lscala/PartialFunction;;
const #246 = NameAndType	#241:#245;//  andThen:(Lscala/Function1;)Lscala/PartialFunction;
const #247 = InterfaceMethod	#244.#246;	//  scala/PartialFunction.andThen:(Lscala/Function1;)Lscala/PartialFunction;
const #248 = Asciz	g;
const #249 = Asciz	Lscala/Function1;;
const #250 = Asciz	toString;
const #251 = Asciz	()Ljava/lang/String;;
const #252 = Asciz	length;
const #253 = Asciz	()I;
const #254 = NameAndType	#252:#253;//  length:()I
const #255 = Method	#33.#254;	//  scala/collection/immutable/NumericRange.length:()I
const #256 = Asciz	scala/collection/immutable/Range$;
const #257 = class	#256;	//  scala/collection/immutable/Range$
const #258 = Asciz	Lscala/collection/immutable/Range$;;
const #259 = NameAndType	#8:#258;//  MODULE$:Lscala/collection/immutable/Range$;
const #260 = Field	#257.#259;	//  scala/collection/immutable/Range$.MODULE$:Lscala/collection/immutable/Range$;
const #261 = Asciz	MAX_PRINT;
const #262 = NameAndType	#261:#253;//  MAX_PRINT:()I
const #263 = Method	#257.#262;	//  scala/collection/immutable/Range$.MAX_PRINT:()I
const #264 = Asciz	, ... );
const #265 = String	#264;	//  , ... )
const #266 = Asciz	);
const #267 = String	#266;	//  )
const #268 = Asciz	take;
const #269 = NameAndType	#268:#154;//  take:(I)Ljava/lang/Object;
const #270 = InterfaceMethod	#211.#269;	//  scala/collection/IndexedSeqLike.take:(I)Ljava/lang/Object;
const #271 = Asciz	scala/collection/TraversableLike;
const #272 = class	#271;	//  scala/collection/TraversableLike
const #273 = Asciz	NumericRange(;
const #274 = String	#273;	//  NumericRange(
const #275 = Asciz	, ;
const #276 = String	#275;	//  , 
const #277 = Asciz	mkString;
const #278 = Asciz	(Ljava/lang/String;Ljava/lang/String;Ljava/lang/String;)Ljava/lang/String;;
const #279 = NameAndType	#277:#278;//  mkString:(Ljava/lang/String;Ljava/lang/String;Ljava/lang/String;)Ljava/lang/String;
const #280 = InterfaceMethod	#272.#279;	//  scala/collection/TraversableLike.mkString:(Ljava/lang/String;Ljava/lang/String;Ljava/lang/String;)Ljava/lang/String;
const #281 = Asciz	endStr;
const #282 = Asciz	Ljava/lang/String;;
const #283 = Asciz	equals;
const #284 = NameAndType	#28:#134;//  start:()Ljava/lang/Object;
const #285 = Method	#33.#284;	//  scala/collection/immutable/NumericRange.start:()Ljava/lang/Object;
const #286 = Asciz	java/lang/Number;
const #287 = class	#286;	//  java/lang/Number
const #288 = Asciz	java/lang/Character;
const #289 = class	#288;	//  java/lang/Character
const #290 = Asciz	equals2;
const #291 = NameAndType	#290:#184;//  equals2:(Ljava/lang/Object;Ljava/lang/Object;)Z
const #292 = Method	#201.#291;	//  scala/runtime/BoxesRunTime.equals2:(Ljava/lang/Object;Ljava/lang/Object;)Z
const #293 = NameAndType	#283:#140;//  equals:(Ljava/lang/Object;)Z
const #294 = Method	#45.#293;	//  java/lang/Object.equals:(Ljava/lang/Object;)Z
const #295 = NameAndType	#24:#134;//  step:()Ljava/lang/Object;
const #296 = Method	#33.#295;	//  scala/collection/immutable/NumericRange.step:()Ljava/lang/Object;
const #297 = Asciz	scala/MatchError;
const #298 = class	#297;	//  scala/MatchError
const #299 = Asciz	boxToInteger;
const #300 = Asciz	(I)Ljava/lang/Integer;;
const #301 = NameAndType	#299:#300;//  boxToInteger:(I)Ljava/lang/Integer;
const #302 = Method	#201.#301;	//  scala/runtime/BoxesRunTime.boxToInteger:(I)Ljava/lang/Integer;
const #303 = NameAndType	#250:#251;//  toString:()Ljava/lang/String;
const #304 = Method	#45.#303;	//  java/lang/Object.toString:()Ljava/lang/String;
const #305 = Asciz	(Ljava/lang/String;)V;
const #306 = NameAndType	#29:#305;//  "<init>":(Ljava/lang/String;)V
const #307 = Method	#298.#306;	//  scala/MatchError."<init>":(Ljava/lang/String;)V
const #308 = Asciz	(Lscala/collection/SeqLike;Ljava/lang/Object;)Z;
const #309 = NameAndType	#283:#308;//  equals:(Lscala/collection/SeqLike;Ljava/lang/Object;)Z
const #310 = Method	#96.#309;	//  scala/collection/SeqLike$class.equals:(Lscala/collection/SeqLike;Ljava/lang/Object;)Z
const #311 = Asciz	other;
const #312 = Asciz	x0;
const #313 = Asciz	y0;
const #314 = Asciz	x1;
const #315 = Asciz	y1;
const #316 = Asciz	temp6;
const #317 = Asciz	x2;
const #318 = Asciz	y2;
const #319 = Asciz	temp4;
const #320 = NameAndType	#16:#17;//  bitmap$0:I
const #321 = Field	#33.#320;	//  scala/collection/immutable/NumericRange.bitmap$0:I
const #322 = Asciz	(Lscala/collection/SeqLike;)I;
const #323 = NameAndType	#18:#322;//  hashCode:(Lscala/collection/SeqLike;)I
const #324 = Method	#96.#323;	//  scala/collection/SeqLike$class.hashCode:(Lscala/collection/SeqLike;)I
const #325 = NameAndType	#18:#17;//  hashCode:I
const #326 = Field	#33.#325;	//  scala/collection/immutable/NumericRange.hashCode:I
const #327 = Asciz	java/lang/Throwable;
const #328 = class	#327;	//  java/lang/Throwable
const #329 = Asciz	contains;
const #330 = Asciz	containsTyped;
const #331 = NameAndType	#330:#193;//  containsTyped:(Ljava/lang/Object;Lscala/math/Integral;)Z
const #332 = Method	#33.#331;	//  scala/collection/immutable/NumericRange.containsTyped:(Ljava/lang/Object;Lscala/math/Integral;)Z
const #333 = NameAndType	#329:#308;//  contains:(Lscala/collection/SeqLike;Ljava/lang/Object;)Z
const #334 = Method	#96.#333;	//  scala/collection/SeqLike$class.contains:(Lscala/collection/SeqLike;Ljava/lang/Object;)Z
const #335 = Asciz	java/lang/ClassCastException;
const #336 = class	#335;	//  java/lang/ClassCastException
const #337 = Asciz	exceptionResult1;
const #338 = Asciz	mapRange;
const #339 = Asciz	(Lscala/Function1;Lscala/math/Integral;)Lscala/collection/immutable/NumericRange;;
const #340 = Asciz	scala/collection/immutable/NumericRange$$anon$1;
const #341 = class	#340;	//  scala/collection/immutable/NumericRange$$anon$1
const #342 = Asciz	(Lscala/collection/immutable/NumericRange;Lscala/Function1;Lscala/math/Integral;Lscala/collection/immutable/NumericRange;)V;
const #343 = NameAndType	#29:#342;//  "<init>":(Lscala/collection/immutable/NumericRange;Lscala/Function1;Lscala/math/Integral;Lscala/collection/immutable/NumericRange;)V
const #344 = Method	#341.#343;	//  scala/collection/immutable/NumericRange$$anon$1."<init>":(Lscala/collection/immutable/NumericRange;Lscala/Function1;Lscala/math/Integral;Lscala/collection/immutable/NumericRange;)V
const #345 = Asciz	fm$1;
const #346 = Asciz	unum$2;
const #347 = Asciz	<A:Ljava/lang/Object;>(Lscala/Function1<TT;TA;>;Lscala/math/Integral<TA;>;)Lscala/collection/immutable/NumericRange<TA;>;;
const #348 = Asciz	$less$eq;
const #349 = NameAndType	#348:#140;//  $less$eq:(Ljava/lang/Object;)Z
const #350 = Method	#138.#349;	//  scala/math/Ordering$Ops.$less$eq:(Ljava/lang/Object;)Z
const #351 = Asciz	$less;
const #352 = NameAndType	#351:#140;//  $less:(Ljava/lang/Object;)Z
const #353 = Method	#138.#352;	//  scala/math/Ordering$Ops.$less:(Ljava/lang/Object;)Z
const #354 = Asciz	$minus;
const #355 = NameAndType	#354:#181;//  $minus:(Ljava/lang/Object;)Ljava/lang/Object;
const #356 = Method	#179.#355;	//  scala/math/Integral$IntegralOps.$minus:(Ljava/lang/Object;)Ljava/lang/Object;
const #357 = NameAndType	#170:#171;//  divides$1:(Ljava/lang/Object;Ljava/lang/Object;Lscala/math/Integral;)Z
const #358 = Method	#33.#357;	//  scala/collection/immutable/NumericRange.divides$1:(Ljava/lang/Object;Ljava/lang/Object;Lscala/math/Integral;)Z
const #359 = Asciz	$greater$eq;
const #360 = NameAndType	#359:#140;//  $greater$eq:(Ljava/lang/Object;)Z
const #361 = Method	#138.#360;	//  scala/math/Ordering$Ops.$greater$eq:(Ljava/lang/Object;)Z
const #362 = Asciz	unum$1;
const #363 = Asciz	<U:Ljava/lang/Object;>(TU;Lscala/math/Integral<TU;>;)Z;
const #364 = Asciz	java/lang/IndexOutOfBoundsException;
const #365 = class	#364;	//  java/lang/IndexOutOfBoundsException
const #366 = Method	#365.#306;	//  java/lang/IndexOutOfBoundsException."<init>":(Ljava/lang/String;)V
const #367 = Asciz	$times;
const #368 = NameAndType	#367:#181;//  $times:(Ljava/lang/Object;)Ljava/lang/Object;
const #369 = Method	#179.#368;	//  scala/math/Integral$IntegralOps.$times:(Ljava/lang/Object;)Ljava/lang/Object;
const #370 = Asciz	$plus;
const #371 = NameAndType	#370:#181;//  $plus:(Ljava/lang/Object;)Ljava/lang/Object;
const #372 = Method	#179.#371;	//  scala/math/Integral$IntegralOps.$plus:(Ljava/lang/Object;)Ljava/lang/Object;
const #373 = Asciz	idx;
const #374 = Asciz	(I)TT;;
const #375 = Asciz	isEmpty;
const #376 = Asciz	()Z;
const #377 = NameAndType	#22:#376;//  isInclusive:()Z
const #378 = Method	#33.#377;	//  scala/collection/immutable/NumericRange.isInclusive:()Z
const #379 = NameAndType	#189:#134;//  lim$1:()Ljava/lang/Object;
const #380 = Method	#33.#379;	//  scala/collection/immutable/NumericRange.lim$1:()Ljava/lang/Object;
const #381 = Asciz	$div$percent;
const #382 = Asciz	(Ljava/lang/Object;)Lscala/Tuple2;;
const #383 = NameAndType	#381:#382;//  $div$percent:(Ljava/lang/Object;)Lscala/Tuple2;
const #384 = Method	#179.#383;	//  scala/math/Integral$IntegralOps.$div$percent:(Ljava/lang/Object;)Lscala/Tuple2;
const #385 = Asciz	scala/Tuple2;
const #386 = class	#385;	//  scala/Tuple2
const #387 = Asciz	_1;
const #388 = NameAndType	#387:#134;//  _1:()Ljava/lang/Object;
const #389 = Method	#386.#388;	//  scala/Tuple2._1:()Ljava/lang/Object;
const #390 = Asciz	_2;
const #391 = NameAndType	#390:#134;//  _2:()Ljava/lang/Object;
const #392 = Method	#386.#391;	//  scala/Tuple2._2:()Ljava/lang/Object;
const #393 = Asciz	(Ljava/lang/Object;Ljava/lang/Object;)V;
const #394 = NameAndType	#29:#393;//  "<init>":(Ljava/lang/Object;Ljava/lang/Object;)V
const #395 = Method	#386.#394;	//  scala/Tuple2."<init>":(Ljava/lang/Object;Ljava/lang/Object;)V
const #396 = Method	#386.#303;	//  scala/Tuple2.toString:()Ljava/lang/String;
const #397 = Asciz	temp2;
const #398 = Asciz	temp3;
const #399 = Asciz	left;
const #400 = Asciz	steps;
const #401 = Asciz	last;
const #402 = Asciz	temp1;
const #403 = Asciz	Lscala/Tuple2;;
const #404 = Asciz	()TT;;
const #405 = Asciz	foreach;
const #406 = Asciz	scala/Function1;
const #407 = class	#406;	//  scala/Function1
const #408 = NameAndType	#199:#181;//  apply:(Ljava/lang/Object;)Ljava/lang/Object;
const #409 = InterfaceMethod	#407.#408;	//  scala/Function1.apply:(Ljava/lang/Object;)Ljava/lang/Object;
const #410 = Asciz	f;
const #411 = Asciz	i;
const #412 = Asciz	<U:Ljava/lang/Object;>(Lscala/Function1<TT;TU;>;)V;
const #413 = Asciz	copy;
const #414 = Asciz	(Ljava/lang/Object;Ljava/lang/Object;Ljava/lang/Object;Lscala/math/Integral;)Lscala/collection/immutable/NumericRange;;
const #415 = Asciz	<U:Ljava/lang/Object;>(TU;TU;TU;Lscala/math/Integral<TU;>;)Lscala/collection/immutable/NumericRange<TU;>;;
const #416 = Asciz	(Ljava/lang/Object;Lscala/math/Integral;)Lscala/collection/immutable/NumericRange;;
const #417 = NameAndType	#413:#414;//  copy:(Ljava/lang/Object;Ljava/lang/Object;Ljava/lang/Object;Lscala/math/Integral;)Lscala/collection/immutable/NumericRange;
const #418 = Method	#33.#417;	//  scala/collection/immutable/NumericRange.copy:(Ljava/lang/Object;Ljava/lang/Object;Ljava/lang/Object;Lscala/math/Integral;)Lscala/collection/immutable/NumericRange;
const #419 = Asciz	newStep;
const #420 = Asciz	unum;
const #421 = Asciz	<U:Ljava/lang/Object;>(TU;Lscala/math/Integral<TU;>;)Lscala/collection/immutable/NumericRange<TU;>;;
const #422 = Asciz	underlying;
const #423 = Asciz	()Lscala/collection/immutable/IndexedSeq;;
const #424 = Asciz	scala/collection/immutable/IndexedSeq$;
const #425 = class	#424;	//  scala/collection/immutable/IndexedSeq$
const #426 = Asciz	Lscala/collection/immutable/IndexedSeq$;;
const #427 = NameAndType	#8:#426;//  MODULE$:Lscala/collection/immutable/IndexedSeq$;
const #428 = Field	#425.#427;	//  scala/collection/immutable/IndexedSeq$.MODULE$:Lscala/collection/immutable/IndexedSeq$;
const #429 = Asciz	empty;
const #430 = NameAndType	#429:#216;//  empty:()Lscala/collection/Traversable;
const #431 = Method	#425.#430;	//  scala/collection/immutable/IndexedSeq$.empty:()Lscala/collection/Traversable;
const #432 = Asciz	scala/collection/immutable/IndexedSeq;
const #433 = class	#432;	//  scala/collection/immutable/IndexedSeq
const #434 = Asciz	()Lscala/collection/immutable/IndexedSeq<TT;>;;
const #435 = NameAndType	#375:#376;//  isEmpty:()Z
const #436 = Method	#33.#435;	//  scala/collection/immutable/NumericRange.isEmpty:()Z
const #437 = Asciz	java/lang/UnsupportedOperationException;
const #438 = class	#437;	//  java/lang/UnsupportedOperationException
const #439 = Method	#438.#306;	//  java/lang/UnsupportedOperationException."<init>":(Ljava/lang/String;)V
const #440 = Asciz	msg;
const #441 = Asciz	withFilter;
const #442 = Asciz	(Lscala/Function1;)Lscala/collection/TraversableLike$WithFilter;;
const #443 = Asciz	(Lscala/collection/TraversableLike;Lscala/Function1;)Lscala/collection/TraversableLike$WithFilter;;
const #444 = NameAndType	#441:#443;//  withFilter:(Lscala/collection/TraversableLike;Lscala/Function1;)Lscala/collection/TraversableLike$WithFilter;
const #445 = Method	#50.#444;	//  scala/collection/TraversableLike$class.withFilter:(Lscala/collection/TraversableLike;Lscala/Function1;)Lscala/collection/TraversableLike$WithFilter;
const #446 = Asciz	p;
const #447 = Asciz	stringPrefix;
const #448 = Asciz	(Lscala/collection/TraversableLike;)Ljava/lang/String;;
const #449 = NameAndType	#447:#448;//  stringPrefix:(Lscala/collection/TraversableLike;)Ljava/lang/String;
const #450 = Method	#50.#449;	//  scala/collection/TraversableLike$class.stringPrefix:(Lscala/collection/TraversableLike;)Ljava/lang/String;
const #451 = Asciz	addString;
const #452 = Asciz	(Lscala/collection/mutable/StringBuilder;)Lscala/collection/mutable/StringBuilder;;
const #453 = Asciz	(Lscala/collection/TraversableLike;Lscala/collection/mutable/StringBuilder;)Lscala/collection/mutable/StringBuilder;;
const #454 = NameAndType	#451:#453;//  addString:(Lscala/collection/TraversableLike;Lscala/collection/mutable/StringBuilder;)Lscala/collection/mutable/StringBuilder;
const #455 = Method	#50.#454;	//  scala/collection/TraversableLike$class.addString:(Lscala/collection/TraversableLike;Lscala/collection/mutable/StringBuilder;)Lscala/collection/mutable/StringBuilder;
const #456 = Asciz	b;
const #457 = Asciz	Lscala/collection/mutable/StringBuilder;;
const #458 = Asciz	(Lscala/collection/mutable/StringBuilder;Ljava/lang/String;)Lscala/collection/mutable/StringBuilder;;
const #459 = Asciz	(Lscala/collection/TraversableLike;Lscala/collection/mutable/StringBuilder;Ljava/lang/String;)Lscala/collection/mutable/StringBuilder;;
const #460 = NameAndType	#451:#459;//  addString:(Lscala/collection/TraversableLike;Lscala/collection/mutable/StringBuilder;Ljava/lang/String;)Lscala/collection/mutable/StringBuilder;
const #461 = Method	#50.#460;	//  scala/collection/TraversableLike$class.addString:(Lscala/collection/TraversableLike;Lscala/collection/mutable/StringBuilder;Ljava/lang/String;)Lscala/collection/mutable/StringBuilder;
const #462 = Asciz	sep;
const #463 = Asciz	(Lscala/collection/mutable/StringBuilder;Ljava/lang/String;Ljava/lang/String;Ljava/lang/String;)Lscala/collection/mutable/StringBuilder;;
const #464 = Asciz	(Lscala/collection/TraversableLike;Lscala/collection/mutable/StringBuilder;Ljava/lang/String;Ljava/lang/String;Ljava/lang/String;)Lscala/collection/mutable/StringBuilder;;
const #465 = NameAndType	#451:#464;//  addString:(Lscala/collection/TraversableLike;Lscala/collection/mutable/StringBuilder;Ljava/lang/String;Ljava/lang/String;Ljava/lang/String;)Lscala/collection/mutable/StringBuilder;
const #466 = Method	#50.#465;	//  scala/collection/TraversableLike$class.addString:(Lscala/collection/TraversableLike;Lscala/collection/mutable/StringBuilder;Ljava/lang/String;Ljava/lang/String;Ljava/lang/String;)Lscala/collection/mutable/StringBuilder;
const #467 = NameAndType	#277:#448;//  mkString:(Lscala/collection/TraversableLike;)Ljava/lang/String;
const #468 = Method	#50.#467;	//  scala/collection/TraversableLike$class.mkString:(Lscala/collection/TraversableLike;)Ljava/lang/String;
const #469 = Asciz	(Ljava/lang/String;)Ljava/lang/String;;
const #470 = Asciz	(Lscala/collection/TraversableLike;Ljava/lang/String;)Ljava/lang/String;;
const #471 = NameAndType	#277:#470;//  mkString:(Lscala/collection/TraversableLike;Ljava/lang/String;)Ljava/lang/String;
const #472 = Method	#50.#471;	//  scala/collection/TraversableLike$class.mkString:(Lscala/collection/TraversableLike;Ljava/lang/String;)Ljava/lang/String;
const #473 = Asciz	(Lscala/collection/TraversableLike;Ljava/lang/String;Ljava/lang/String;Ljava/lang/String;)Ljava/lang/String;;
const #474 = NameAndType	#277:#473;//  mkString:(Lscala/collection/TraversableLike;Ljava/lang/String;Ljava/lang/String;Ljava/lang/String;)Ljava/lang/String;
const #475 = Method	#50.#474;	//  scala/collection/TraversableLike$class.mkString:(Lscala/collection/TraversableLike;Ljava/lang/String;Ljava/lang/String;Ljava/lang/String;)Ljava/lang/String;
const #476 = Asciz	toSet;
const #477 = Asciz	()Lscala/collection/immutable/Set;;
const #478 = Asciz	(Lscala/collection/TraversableLike;)Lscala/collection/immutable/Set;;
const #479 = NameAndType	#476:#478;//  toSet:(Lscala/collection/TraversableLike;)Lscala/collection/immutable/Set;
const #480 = Method	#50.#479;	//  scala/collection/TraversableLike$class.toSet:(Lscala/collection/TraversableLike;)Lscala/collection/immutable/Set;
const #481 = Asciz	toIndexedSeq;
const #482 = Asciz	()Lscala/collection/mutable/IndexedSeq;;
const #483 = Asciz	(Lscala/collection/TraversableLike;)Lscala/collection/mutable/IndexedSeq;;
const #484 = NameAndType	#481:#483;//  toIndexedSeq:(Lscala/collection/TraversableLike;)Lscala/collection/mutable/IndexedSeq;
const #485 = Method	#50.#484;	//  scala/collection/TraversableLike$class.toIndexedSeq:(Lscala/collection/TraversableLike;)Lscala/collection/mutable/IndexedSeq;
const #486 = Asciz	toList;
const #487 = Asciz	()Lscala/collection/immutable/List;;
const #488 = Asciz	(Lscala/collection/TraversableLike;)Lscala/collection/immutable/List;;
const #489 = NameAndType	#486:#488;//  toList:(Lscala/collection/TraversableLike;)Lscala/collection/immutable/List;
const #490 = Method	#50.#489;	//  scala/collection/TraversableLike$class.toList:(Lscala/collection/TraversableLike;)Lscala/collection/immutable/List;
const #491 = Asciz	toArray;
const #492 = Asciz	(Lscala/reflect/ClassManifest;)Ljava/lang/Object;;
const #493 = Asciz	(Lscala/collection/TraversableLike;Lscala/reflect/ClassManifest;)Ljava/lang/Object;;
const #494 = NameAndType	#491:#493;//  toArray:(Lscala/collection/TraversableLike;Lscala/reflect/ClassManifest;)Ljava/lang/Object;
const #495 = Method	#50.#494;	//  scala/collection/TraversableLike$class.toArray:(Lscala/collection/TraversableLike;Lscala/reflect/ClassManifest;)Ljava/lang/Object;
const #496 = Asciz	evidence$1;
const #497 = Asciz	Lscala/reflect/ClassManifest;;
const #498 = Asciz	copyToArray;
const #499 = Asciz	(Ljava/lang/Object;I)V;
const #500 = Asciz	(Lscala/collection/TraversableLike;Ljava/lang/Object;I)V;
const #501 = NameAndType	#498:#500;//  copyToArray:(Lscala/collection/TraversableLike;Ljava/lang/Object;I)V
const #502 = Method	#50.#501;	//  scala/collection/TraversableLike$class.copyToArray:(Lscala/collection/TraversableLike;Ljava/lang/Object;I)V
const #503 = Asciz	xs;
const #504 = Asciz	copyToBuffer;
const #505 = Asciz	(Lscala/collection/mutable/Buffer;)V;
const #506 = Asciz	(Lscala/collection/TraversableLike;Lscala/collection/mutable/Buffer;)V;
const #507 = NameAndType	#504:#506;//  copyToBuffer:(Lscala/collection/TraversableLike;Lscala/collection/mutable/Buffer;)V
const #508 = Method	#50.#507;	//  scala/collection/TraversableLike$class.copyToBuffer:(Lscala/collection/TraversableLike;Lscala/collection/mutable/Buffer;)V
const #509 = Asciz	dest;
const #510 = Asciz	Lscala/collection/mutable/Buffer;;
const #511 = Asciz	lastOption;
const #512 = Asciz	()Lscala/Option;;
const #513 = Asciz	(Lscala/collection/TraversableLike;)Lscala/Option;;
const #514 = NameAndType	#511:#513;//  lastOption:(Lscala/collection/TraversableLike;)Lscala/Option;
const #515 = Method	#50.#514;	//  scala/collection/TraversableLike$class.lastOption:(Lscala/collection/TraversableLike;)Lscala/Option;
const #516 = Asciz	headOption;
const #517 = NameAndType	#516:#513;//  headOption:(Lscala/collection/TraversableLike;)Lscala/Option;
const #518 = Method	#50.#517;	//  scala/collection/TraversableLike$class.headOption:(Lscala/collection/TraversableLike;)Lscala/Option;
const #519 = Asciz	max;
const #520 = Asciz	(Lscala/math/Ordering;)Ljava/lang/Object;;
const #521 = Asciz	(Lscala/collection/TraversableLike;Lscala/math/Ordering;)Ljava/lang/Object;;
const #522 = NameAndType	#519:#521;//  max:(Lscala/collection/TraversableLike;Lscala/math/Ordering;)Ljava/lang/Object;
const #523 = Method	#50.#522;	//  scala/collection/TraversableLike$class.max:(Lscala/collection/TraversableLike;Lscala/math/Ordering;)Ljava/lang/Object;
const #524 = Asciz	cmp;
const #525 = Asciz	Lscala/math/Ordering;;
const #526 = Asciz	min;
const #527 = NameAndType	#526:#521;//  min:(Lscala/collection/TraversableLike;Lscala/math/Ordering;)Ljava/lang/Object;
const #528 = Method	#50.#527;	//  scala/collection/TraversableLike$class.min:(Lscala/collection/TraversableLike;Lscala/math/Ordering;)Ljava/lang/Object;
const #529 = Asciz	product;
const #530 = Asciz	(Lscala/math/Numeric;)Ljava/lang/Object;;
const #531 = Asciz	(Lscala/collection/TraversableLike;Lscala/math/Numeric;)Ljava/lang/Object;;
const #532 = NameAndType	#529:#531;//  product:(Lscala/collection/TraversableLike;Lscala/math/Numeric;)Ljava/lang/Object;
const #533 = Method	#50.#532;	//  scala/collection/TraversableLike$class.product:(Lscala/collection/TraversableLike;Lscala/math/Numeric;)Ljava/lang/Object;
const #534 = Asciz	Lscala/math/Numeric;;
const #535 = Asciz	sum;
const #536 = NameAndType	#535:#531;//  sum:(Lscala/collection/TraversableLike;Lscala/math/Numeric;)Ljava/lang/Object;
const #537 = Method	#50.#536;	//  scala/collection/TraversableLike$class.sum:(Lscala/collection/TraversableLike;Lscala/math/Numeric;)Ljava/lang/Object;
const #538 = Asciz	reduceRightOption;
const #539 = Asciz	(Lscala/Function2;)Lscala/Option;;
const #540 = Asciz	(Lscala/collection/TraversableLike;Lscala/Function2;)Lscala/Option;;
const #541 = NameAndType	#538:#540;//  reduceRightOption:(Lscala/collection/TraversableLike;Lscala/Function2;)Lscala/Option;
const #542 = Method	#50.#541;	//  scala/collection/TraversableLike$class.reduceRightOption:(Lscala/collection/TraversableLike;Lscala/Function2;)Lscala/Option;
const #543 = Asciz	op;
const #544 = Asciz	Lscala/Function2;;
const #545 = Asciz	reduceLeftOption;
const #546 = NameAndType	#545:#540;//  reduceLeftOption:(Lscala/collection/TraversableLike;Lscala/Function2;)Lscala/Option;
const #547 = Method	#50.#546;	//  scala/collection/TraversableLike$class.reduceLeftOption:(Lscala/collection/TraversableLike;Lscala/Function2;)Lscala/Option;
const #548 = Asciz	$colon$bslash;
const #549 = Asciz	(Ljava/lang/Object;Lscala/Function2;)Ljava/lang/Object;;
const #550 = Asciz	(Lscala/collection/TraversableLike;Ljava/lang/Object;Lscala/Function2;)Ljava/lang/Object;;
const #551 = NameAndType	#548:#550;//  $colon$bslash:(Lscala/collection/TraversableLike;Ljava/lang/Object;Lscala/Function2;)Ljava/lang/Object;
const #552 = Method	#50.#551;	//  scala/collection/TraversableLike$class.$colon$bslash:(Lscala/collection/TraversableLike;Ljava/lang/Object;Lscala/Function2;)Ljava/lang/Object;
const #553 = Asciz	z;
const #554 = Asciz	$div$colon;
const #555 = NameAndType	#554:#550;//  $div$colon:(Lscala/collection/TraversableLike;Ljava/lang/Object;Lscala/Function2;)Ljava/lang/Object;
const #556 = Method	#50.#555;	//  scala/collection/TraversableLike$class.$div$colon:(Lscala/collection/TraversableLike;Ljava/lang/Object;Lscala/Function2;)Ljava/lang/Object;
const #557 = Asciz	count;
const #558 = Asciz	(Lscala/Function1;)I;
const #559 = Asciz	(Lscala/collection/TraversableLike;Lscala/Function1;)I;
const #560 = NameAndType	#557:#559;//  count:(Lscala/collection/TraversableLike;Lscala/Function1;)I
const #561 = Method	#50.#560;	//  scala/collection/TraversableLike$class.count:(Lscala/collection/TraversableLike;Lscala/Function1;)I
const #562 = Asciz	groupBy;
const #563 = Asciz	(Lscala/Function1;)Lscala/collection/Map;;
const #564 = Asciz	(Lscala/collection/TraversableLike;Lscala/Function1;)Lscala/collection/Map;;
const #565 = NameAndType	#562:#564;//  groupBy:(Lscala/collection/TraversableLike;Lscala/Function1;)Lscala/collection/Map;
const #566 = Method	#50.#565;	//  scala/collection/TraversableLike$class.groupBy:(Lscala/collection/TraversableLike;Lscala/Function1;)Lscala/collection/Map;
const #567 = Asciz	partition;
const #568 = Asciz	(Lscala/Function1;)Lscala/Tuple2;;
const #569 = Asciz	(Lscala/collection/TraversableLike;Lscala/Function1;)Lscala/Tuple2;;
const #570 = NameAndType	#567:#569;//  partition:(Lscala/collection/TraversableLike;Lscala/Function1;)Lscala/Tuple2;
const #571 = Method	#50.#570;	//  scala/collection/TraversableLike$class.partition:(Lscala/collection/TraversableLike;Lscala/Function1;)Lscala/Tuple2;
const #572 = Asciz	partialMap;
const #573 = Asciz	(Lscala/PartialFunction;Lscala/collection/generic/CanBuildFrom;)Ljava/lang/Object;;
const #574 = Asciz	(Lscala/collection/TraversableLike;Lscala/PartialFunction;Lscala/collection/generic/CanBuildFrom;)Ljava/lang/Object;;
const #575 = NameAndType	#572:#574;//  partialMap:(Lscala/collection/TraversableLike;Lscala/PartialFunction;Lscala/collection/generic/CanBuildFrom;)Ljava/lang/Object;
const #576 = Method	#50.#575;	//  scala/collection/TraversableLike$class.partialMap:(Lscala/collection/TraversableLike;Lscala/PartialFunction;Lscala/collection/generic/CanBuildFrom;)Ljava/lang/Object;
const #577 = Asciz	pf;
const #578 = Asciz	Lscala/PartialFunction;;
const #579 = Asciz	bf;
const #580 = Asciz	Lscala/collection/generic/CanBuildFrom;;
const #581 = Asciz	filterNot;
const #582 = Asciz	(Lscala/Function1;)Ljava/lang/Object;;
const #583 = Asciz	(Lscala/collection/TraversableLike;Lscala/Function1;)Ljava/lang/Object;;
const #584 = NameAndType	#581:#583;//  filterNot:(Lscala/collection/TraversableLike;Lscala/Function1;)Ljava/lang/Object;
const #585 = Method	#50.#584;	//  scala/collection/TraversableLike$class.filterNot:(Lscala/collection/TraversableLike;Lscala/Function1;)Ljava/lang/Object;
const #586 = Asciz	filter;
const #587 = NameAndType	#586:#583;//  filter:(Lscala/collection/TraversableLike;Lscala/Function1;)Ljava/lang/Object;
const #588 = Method	#50.#587;	//  scala/collection/TraversableLike$class.filter:(Lscala/collection/TraversableLike;Lscala/Function1;)Ljava/lang/Object;
const #589 = Asciz	flatMap;
const #590 = Asciz	(Lscala/Function1;Lscala/collection/generic/CanBuildFrom;)Ljava/lang/Object;;
const #591 = Asciz	(Lscala/collection/TraversableLike;Lscala/Function1;Lscala/collection/generic/CanBuildFrom;)Ljava/lang/Object;;
const #592 = NameAndType	#589:#591;//  flatMap:(Lscala/collection/TraversableLike;Lscala/Function1;Lscala/collection/generic/CanBuildFrom;)Ljava/lang/Object;
const #593 = Method	#50.#592;	//  scala/collection/TraversableLike$class.flatMap:(Lscala/collection/TraversableLike;Lscala/Function1;Lscala/collection/generic/CanBuildFrom;)Ljava/lang/Object;
const #594 = Asciz	map;
const #595 = NameAndType	#594:#591;//  map:(Lscala/collection/TraversableLike;Lscala/Function1;Lscala/collection/generic/CanBuildFrom;)Ljava/lang/Object;
const #596 = Method	#50.#595;	//  scala/collection/TraversableLike$class.map:(Lscala/collection/TraversableLike;Lscala/Function1;Lscala/collection/generic/CanBuildFrom;)Ljava/lang/Object;
const #597 = Asciz	$plus$plus;
const #598 = Asciz	(Lscala/collection/Iterator;Lscala/collection/generic/CanBuildFrom;)Ljava/lang/Object;;
const #599 = Asciz	(Lscala/collection/TraversableLike;Lscala/collection/Iterator;Lscala/collection/generic/CanBuildFrom;)Ljava/lang/Object;;
const #600 = NameAndType	#597:#599;//  $plus$plus:(Lscala/collection/TraversableLike;Lscala/collection/Iterator;Lscala/collection/generic/CanBuildFrom;)Ljava/lang/Object;
const #601 = Method	#50.#600;	//  scala/collection/TraversableLike$class.$plus$plus:(Lscala/collection/TraversableLike;Lscala/collection/Iterator;Lscala/collection/generic/CanBuildFrom;)Ljava/lang/Object;
const #602 = Asciz	that;
const #603 = Asciz	Lscala/collection/Iterator;;
const #604 = Asciz	(Lscala/collection/Traversable;Lscala/collection/generic/CanBuildFrom;)Ljava/lang/Object;;
const #605 = Asciz	(Lscala/collection/TraversableLike;Lscala/collection/Traversable;Lscala/collection/generic/CanBuildFrom;)Ljava/lang/Object;;
const #606 = NameAndType	#597:#605;//  $plus$plus:(Lscala/collection/TraversableLike;Lscala/collection/Traversable;Lscala/collection/generic/CanBuildFrom;)Ljava/lang/Object;
const #607 = Method	#50.#606;	//  scala/collection/TraversableLike$class.$plus$plus:(Lscala/collection/TraversableLike;Lscala/collection/Traversable;Lscala/collection/generic/CanBuildFrom;)Ljava/lang/Object;
const #608 = Asciz	Lscala/collection/Traversable;;
const #609 = Asciz	hasDefiniteSize;
const #610 = Asciz	(Lscala/collection/TraversableLike;)Z;
const #611 = NameAndType	#609:#610;//  hasDefiniteSize:(Lscala/collection/TraversableLike;)Z
const #612 = Method	#50.#611;	//  scala/collection/TraversableLike$class.hasDefiniteSize:(Lscala/collection/TraversableLike;)Z
const #613 = Asciz	nonEmpty;
const #614 = NameAndType	#613:#610;//  nonEmpty:(Lscala/collection/TraversableLike;)Z
const #615 = Method	#50.#614;	//  scala/collection/TraversableLike$class.nonEmpty:(Lscala/collection/TraversableLike;)Z
const #616 = Asciz	(Lscala/collection/TraversableLike;)Ljava/lang/Object;;
const #617 = NameAndType	#222:#616;//  repr:(Lscala/collection/TraversableLike;)Ljava/lang/Object;
const #618 = Method	#50.#617;	//  scala/collection/TraversableLike$class.repr:(Lscala/collection/TraversableLike;)Ljava/lang/Object;
const #619 = Asciz	transpose;
const #620 = Asciz	(Lscala/Function1;)Lscala/collection/Traversable;;
const #621 = Asciz	(Lscala/collection/generic/GenericTraversableTemplate;Lscala/Function1;)Lscala/collection/Traversable;;
const #622 = NameAndType	#619:#621;//  transpose:(Lscala/collection/generic/GenericTraversableTemplate;Lscala/Function1;)Lscala/collection/Traversable;
const #623 = Method	#56.#622;	//  scala/collection/generic/GenericTraversableTemplate$class.transpose:(Lscala/collection/generic/GenericTraversableTemplate;Lscala/Function1;)Lscala/collection/Traversable;
const #624 = Asciz	asTraversable;
const #625 = Asciz	flatten;
const #626 = NameAndType	#625:#621;//  flatten:(Lscala/collection/generic/GenericTraversableTemplate;Lscala/Function1;)Lscala/collection/Traversable;
const #627 = Method	#56.#626;	//  scala/collection/generic/GenericTraversableTemplate$class.flatten:(Lscala/collection/generic/GenericTraversableTemplate;Lscala/Function1;)Lscala/collection/Traversable;
const #628 = Asciz	unzip;
const #629 = Asciz	(Lscala/collection/generic/GenericTraversableTemplate;Lscala/Function1;)Lscala/Tuple2;;
const #630 = NameAndType	#628:#629;//  unzip:(Lscala/collection/generic/GenericTraversableTemplate;Lscala/Function1;)Lscala/Tuple2;
const #631 = Method	#56.#630;	//  scala/collection/generic/GenericTraversableTemplate$class.unzip:(Lscala/collection/generic/GenericTraversableTemplate;Lscala/Function1;)Lscala/Tuple2;
const #632 = Asciz	asPair;
const #633 = Asciz	genericBuilder;
const #634 = Asciz	()Lscala/collection/mutable/Builder;;
const #635 = Asciz	(Lscala/collection/generic/GenericTraversableTemplate;)Lscala/collection/mutable/Builder;;
const #636 = NameAndType	#633:#635;//  genericBuilder:(Lscala/collection/generic/GenericTraversableTemplate;)Lscala/collection/mutable/Builder;
const #637 = Method	#56.#636;	//  scala/collection/generic/GenericTraversableTemplate$class.genericBuilder:(Lscala/collection/generic/GenericTraversableTemplate;)Lscala/collection/mutable/Builder;
const #638 = Asciz	newBuilder;
const #639 = NameAndType	#638:#635;//  newBuilder:(Lscala/collection/generic/GenericTraversableTemplate;)Lscala/collection/mutable/Builder;
const #640 = Method	#56.#639;	//  scala/collection/generic/GenericTraversableTemplate$class.newBuilder:(Lscala/collection/generic/GenericTraversableTemplate;)Lscala/collection/mutable/Builder;
const #641 = Asciz	firstOption;
const #642 = Asciz	(Lscala/collection/IterableLike;)Lscala/Option;;
const #643 = NameAndType	#641:#642;//  firstOption:(Lscala/collection/IterableLike;)Lscala/Option;
const #644 = Method	#71.#643;	//  scala/collection/IterableLike$class.firstOption:(Lscala/collection/IterableLike;)Lscala/Option;
const #645 = Asciz	first;
const #646 = Asciz	(Lscala/collection/IterableLike;)Ljava/lang/Object;;
const #647 = NameAndType	#645:#646;//  first:(Lscala/collection/IterableLike;)Ljava/lang/Object;
const #648 = Method	#71.#647;	//  scala/collection/IterableLike$class.first:(Lscala/collection/IterableLike;)Ljava/lang/Object;
const #649 = Asciz	canEqual;
const #650 = Asciz	(Lscala/collection/IterableLike;Ljava/lang/Object;)Z;
const #651 = NameAndType	#649:#650;//  canEqual:(Lscala/collection/IterableLike;Ljava/lang/Object;)Z
const #652 = Method	#71.#651;	//  scala/collection/IterableLike$class.canEqual:(Lscala/collection/IterableLike;Ljava/lang/Object;)Z
const #653 = Asciz	toStream;
const #654 = Asciz	()Lscala/collection/immutable/Stream;;
const #655 = Asciz	(Lscala/collection/IterableLike;)Lscala/collection/immutable/Stream;;
const #656 = NameAndType	#653:#655;//  toStream:(Lscala/collection/IterableLike;)Lscala/collection/immutable/Stream;
const #657 = Method	#71.#656;	//  scala/collection/IterableLike$class.toStream:(Lscala/collection/IterableLike;)Lscala/collection/immutable/Stream;
const #658 = Asciz	zipAll;
const #659 = Asciz	(Lscala/collection/Iterable;Ljava/lang/Object;Ljava/lang/Object;Lscala/collection/generic/CanBuildFrom;)Ljava/lang/Object;;
const #660 = Asciz	(Lscala/collection/IterableLike;Lscala/collection/Iterable;Ljava/lang/Object;Ljava/lang/Object;Lscala/collection/generic/CanBuildFrom;)Ljava/lang/Object;;
const #661 = NameAndType	#658:#660;//  zipAll:(Lscala/collection/IterableLike;Lscala/collection/Iterable;Ljava/lang/Object;Ljava/lang/Object;Lscala/collection/generic/CanBuildFrom;)Ljava/lang/Object;
const #662 = Method	#71.#661;	//  scala/collection/IterableLike$class.zipAll:(Lscala/collection/IterableLike;Lscala/collection/Iterable;Ljava/lang/Object;Ljava/lang/Object;Lscala/collection/generic/CanBuildFrom;)Ljava/lang/Object;
const #663 = Asciz	Lscala/collection/Iterable;;
const #664 = Asciz	thisElem;
const #665 = Asciz	thatElem;
const #666 = Asciz	toIterable;
const #667 = Asciz	(Lscala/collection/IterableLike;)Lscala/collection/Iterable;;
const #668 = NameAndType	#666:#667;//  toIterable:(Lscala/collection/IterableLike;)Lscala/collection/Iterable;
const #669 = Method	#71.#668;	//  scala/collection/IterableLike$class.toIterable:(Lscala/collection/IterableLike;)Lscala/collection/Iterable;
const #670 = Asciz	elements;
const #671 = Asciz	()Lscala/collection/Iterator;;
const #672 = Asciz	(Lscala/collection/IterableLike;)Lscala/collection/Iterator;;
const #673 = NameAndType	#670:#672;//  elements:(Lscala/collection/IterableLike;)Lscala/collection/Iterator;
const #674 = Method	#71.#673;	//  scala/collection/IterableLike$class.elements:(Lscala/collection/IterableLike;)Lscala/collection/Iterator;
const #675 = Asciz	compose;
const #676 = Asciz	(Lscala/Function1;Lscala/Function1;)Lscala/Function1;;
const #677 = NameAndType	#675:#676;//  compose:(Lscala/Function1;Lscala/Function1;)Lscala/Function1;
const #678 = Method	#86.#677;	//  scala/Function1$class.compose:(Lscala/Function1;Lscala/Function1;)Lscala/Function1;
const #679 = Asciz	(Lscala/PartialFunction;Lscala/Function1;)Lscala/PartialFunction;;
const #680 = NameAndType	#241:#679;//  andThen:(Lscala/PartialFunction;Lscala/Function1;)Lscala/PartialFunction;
const #681 = Method	#91.#680;	//  scala/PartialFunction$class.andThen:(Lscala/PartialFunction;Lscala/Function1;)Lscala/PartialFunction;
const #682 = Asciz	k;
const #683 = Asciz	orElse;
const #684 = Asciz	(Lscala/PartialFunction;)Lscala/PartialFunction;;
const #685 = Asciz	(Lscala/PartialFunction;Lscala/PartialFunction;)Lscala/PartialFunction;;
const #686 = NameAndType	#683:#685;//  orElse:(Lscala/PartialFunction;Lscala/PartialFunction;)Lscala/PartialFunction;
const #687 = Method	#91.#686;	//  scala/PartialFunction$class.orElse:(Lscala/PartialFunction;Lscala/PartialFunction;)Lscala/PartialFunction;
const #688 = Asciz	projection;
const #689 = Asciz	(Lscala/collection/SeqLike;)Ljava/lang/Object;;
const #690 = NameAndType	#688:#689;//  projection:(Lscala/collection/SeqLike;)Ljava/lang/Object;
const #691 = Method	#96.#690;	//  scala/collection/SeqLike$class.projection:(Lscala/collection/SeqLike;)Ljava/lang/Object;
const #692 = Asciz	containsSlice;
const #693 = Asciz	(Lscala/collection/Seq;)Z;
const #694 = Asciz	(Lscala/collection/SeqLike;Lscala/collection/Seq;)Z;
const #695 = NameAndType	#692:#694;//  containsSlice:(Lscala/collection/SeqLike;Lscala/collection/Seq;)Z
const #696 = Method	#96.#695;	//  scala/collection/SeqLike$class.containsSlice:(Lscala/collection/SeqLike;Lscala/collection/Seq;)Z
const #697 = Asciz	Lscala/collection/Seq;;
const #698 = Asciz	equalsWith;
const #699 = Asciz	(Lscala/collection/Seq;Lscala/Function2;)Z;
const #700 = Asciz	(Lscala/collection/SeqLike;Lscala/collection/Seq;Lscala/Function2;)Z;
const #701 = NameAndType	#698:#700;//  equalsWith:(Lscala/collection/SeqLike;Lscala/collection/Seq;Lscala/Function2;)Z
const #702 = Method	#96.#701;	//  scala/collection/SeqLike$class.equalsWith:(Lscala/collection/SeqLike;Lscala/collection/Seq;Lscala/Function2;)Z
const #703 = Asciz	findLastIndexOf;
const #704 = Asciz	(Lscala/collection/SeqLike;Lscala/Function1;)I;
const #705 = NameAndType	#703:#704;//  findLastIndexOf:(Lscala/collection/SeqLike;Lscala/Function1;)I
const #706 = Method	#96.#705;	//  scala/collection/SeqLike$class.findLastIndexOf:(Lscala/collection/SeqLike;Lscala/Function1;)I
const #707 = Asciz	indices;
const #708 = Asciz	()Lscala/collection/immutable/Range;;
const #709 = Asciz	(Lscala/collection/SeqLike;)Lscala/collection/immutable/Range;;
const #710 = NameAndType	#707:#709;//  indices:(Lscala/collection/SeqLike;)Lscala/collection/immutable/Range;
const #711 = Method	#96.#710;	//  scala/collection/SeqLike$class.indices:(Lscala/collection/SeqLike;)Lscala/collection/immutable/Range;
const #712 = Asciz	toSeq;
const #713 = Asciz	(Lscala/collection/SeqLike;)Lscala/collection/Seq;;
const #714 = NameAndType	#712:#713;//  toSeq:(Lscala/collection/SeqLike;)Lscala/collection/Seq;
const #715 = Method	#96.#714;	//  scala/collection/SeqLike$class.toSeq:(Lscala/collection/SeqLike;)Lscala/collection/Seq;
const #716 = Asciz	sortBy;
const #717 = Asciz	(Lscala/Function1;Lscala/math/Ordering;)Ljava/lang/Object;;
const #718 = Asciz	(Lscala/collection/SeqLike;Lscala/Function1;Lscala/math/Ordering;)Ljava/lang/Object;;
const #719 = NameAndType	#716:#718;//  sortBy:(Lscala/collection/SeqLike;Lscala/Function1;Lscala/math/Ordering;)Ljava/lang/Object;
const #720 = Method	#96.#719;	//  scala/collection/SeqLike$class.sortBy:(Lscala/collection/SeqLike;Lscala/Function1;Lscala/math/Ordering;)Ljava/lang/Object;
const #721 = Asciz	ord;
const #722 = Asciz	sortWith;
const #723 = Asciz	(Lscala/collection/SeqLike;Lscala/math/Ordering;)Ljava/lang/Object;;
const #724 = NameAndType	#722:#723;//  sortWith:(Lscala/collection/SeqLike;Lscala/math/Ordering;)Ljava/lang/Object;
const #725 = Method	#96.#724;	//  scala/collection/SeqLike$class.sortWith:(Lscala/collection/SeqLike;Lscala/math/Ordering;)Ljava/lang/Object;
const #726 = Asciz	(Lscala/Function2;)Ljava/lang/Object;;
const #727 = Asciz	(Lscala/collection/SeqLike;Lscala/Function2;)Ljava/lang/Object;;
const #728 = NameAndType	#722:#727;//  sortWith:(Lscala/collection/SeqLike;Lscala/Function2;)Ljava/lang/Object;
const #729 = Method	#96.#728;	//  scala/collection/SeqLike$class.sortWith:(Lscala/collection/SeqLike;Lscala/Function2;)Ljava/lang/Object;
const #730 = Asciz	lt;
const #731 = Asciz	padTo;
const #732 = Asciz	(ILjava/lang/Object;Lscala/collection/generic/CanBuildFrom;)Ljava/lang/Object;;
const #733 = Asciz	(Lscala/collection/SeqLike;ILjava/lang/Object;Lscala/collection/generic/CanBuildFrom;)Ljava/lang/Object;;
const #734 = NameAndType	#731:#733;//  padTo:(Lscala/collection/SeqLike;ILjava/lang/Object;Lscala/collection/generic/CanBuildFrom;)Ljava/lang/Object;
const #735 = Method	#96.#734;	//  scala/collection/SeqLike$class.padTo:(Lscala/collection/SeqLike;ILjava/lang/Object;Lscala/collection/generic/CanBuildFrom;)Ljava/lang/Object;
const #736 = Asciz	len;
const #737 = Asciz	elem;
const #738 = Asciz	$colon$plus;
const #739 = Asciz	(Ljava/lang/Object;Lscala/collection/generic/CanBuildFrom;)Ljava/lang/Object;;
const #740 = Asciz	(Lscala/collection/SeqLike;Ljava/lang/Object;Lscala/collection/generic/CanBuildFrom;)Ljava/lang/Object;;
const #741 = NameAndType	#738:#740;//  $colon$plus:(Lscala/collection/SeqLike;Ljava/lang/Object;Lscala/collection/generic/CanBuildFrom;)Ljava/lang/Object;
const #742 = Method	#96.#741;	//  scala/collection/SeqLike$class.$colon$plus:(Lscala/collection/SeqLike;Ljava/lang/Object;Lscala/collection/generic/CanBuildFrom;)Ljava/lang/Object;
const #743 = Asciz	$plus$colon;
const #744 = NameAndType	#743:#740;//  $plus$colon:(Lscala/collection/SeqLike;Ljava/lang/Object;Lscala/collection/generic/CanBuildFrom;)Ljava/lang/Object;
const #745 = Method	#96.#744;	//  scala/collection/SeqLike$class.$plus$colon:(Lscala/collection/SeqLike;Ljava/lang/Object;Lscala/collection/generic/CanBuildFrom;)Ljava/lang/Object;
const #746 = Asciz	updated;
const #747 = NameAndType	#746:#733;//  updated:(Lscala/collection/SeqLike;ILjava/lang/Object;Lscala/collection/generic/CanBuildFrom;)Ljava/lang/Object;
const #748 = Method	#96.#747;	//  scala/collection/SeqLike$class.updated:(Lscala/collection/SeqLike;ILjava/lang/Object;Lscala/collection/generic/CanBuildFrom;)Ljava/lang/Object;
const #749 = Asciz	index;
const #750 = Asciz	patch;
const #751 = Asciz	(ILscala/collection/Seq;ILscala/collection/generic/CanBuildFrom;)Ljava/lang/Object;;
const #752 = Asciz	(Lscala/collection/SeqLike;ILscala/collection/Seq;ILscala/collection/generic/CanBuildFrom;)Ljava/lang/Object;;
const #753 = NameAndType	#750:#752;//  patch:(Lscala/collection/SeqLike;ILscala/collection/Seq;ILscala/collection/generic/CanBuildFrom;)Ljava/lang/Object;
const #754 = Method	#96.#753;	//  scala/collection/SeqLike$class.patch:(Lscala/collection/SeqLike;ILscala/collection/Seq;ILscala/collection/generic/CanBuildFrom;)Ljava/lang/Object;
const #755 = Asciz	replaced;
const #756 = Asciz	removeDuplicates;
const #757 = NameAndType	#756:#689;//  removeDuplicates:(Lscala/collection/SeqLike;)Ljava/lang/Object;
const #758 = Method	#96.#757;	//  scala/collection/SeqLike$class.removeDuplicates:(Lscala/collection/SeqLike;)Ljava/lang/Object;
const #759 = Asciz	intersect;
const #760 = Asciz	(Lscala/collection/Seq;)Ljava/lang/Object;;
const #761 = Asciz	(Lscala/collection/SeqLike;Lscala/collection/Seq;)Ljava/lang/Object;;
const #762 = NameAndType	#759:#761;//  intersect:(Lscala/collection/SeqLike;Lscala/collection/Seq;)Ljava/lang/Object;
const #763 = Method	#96.#762;	//  scala/collection/SeqLike$class.intersect:(Lscala/collection/SeqLike;Lscala/collection/Seq;)Ljava/lang/Object;
const #764 = Asciz	diff;
const #765 = NameAndType	#764:#761;//  diff:(Lscala/collection/SeqLike;Lscala/collection/Seq;)Ljava/lang/Object;
const #766 = Method	#96.#765;	//  scala/collection/SeqLike$class.diff:(Lscala/collection/SeqLike;Lscala/collection/Seq;)Ljava/lang/Object;
const #767 = Asciz	union;
const #768 = Asciz	(Lscala/collection/Seq;Lscala/collection/generic/CanBuildFrom;)Ljava/lang/Object;;
const #769 = Asciz	(Lscala/collection/SeqLike;Lscala/collection/Seq;Lscala/collection/generic/CanBuildFrom;)Ljava/lang/Object;;
const #770 = NameAndType	#767:#769;//  union:(Lscala/collection/SeqLike;Lscala/collection/Seq;Lscala/collection/generic/CanBuildFrom;)Ljava/lang/Object;
const #771 = Method	#96.#770;	//  scala/collection/SeqLike$class.union:(Lscala/collection/SeqLike;Lscala/collection/Seq;Lscala/collection/generic/CanBuildFrom;)Ljava/lang/Object;
const #772 = Asciz	lastIndexOfSlice;
const #773 = Asciz	(Lscala/collection/Seq;I)I;
const #774 = Asciz	(Lscala/collection/SeqLike;Lscala/collection/Seq;I)I;
const #775 = NameAndType	#772:#774;//  lastIndexOfSlice:(Lscala/collection/SeqLike;Lscala/collection/Seq;I)I
const #776 = Method	#96.#775;	//  scala/collection/SeqLike$class.lastIndexOfSlice:(Lscala/collection/SeqLike;Lscala/collection/Seq;I)I
const #777 = Asciz	fromIndex;
const #778 = Asciz	(Lscala/collection/Seq;)I;
const #779 = Asciz	(Lscala/collection/SeqLike;Lscala/collection/Seq;)I;
const #780 = NameAndType	#772:#779;//  lastIndexOfSlice:(Lscala/collection/SeqLike;Lscala/collection/Seq;)I
const #781 = Method	#96.#780;	//  scala/collection/SeqLike$class.lastIndexOfSlice:(Lscala/collection/SeqLike;Lscala/collection/Seq;)I
const #782 = Asciz	indexOfSlice;
const #783 = NameAndType	#782:#774;//  indexOfSlice:(Lscala/collection/SeqLike;Lscala/collection/Seq;I)I
const #784 = Method	#96.#783;	//  scala/collection/SeqLike$class.indexOfSlice:(Lscala/collection/SeqLike;Lscala/collection/Seq;I)I
const #785 = NameAndType	#782:#779;//  indexOfSlice:(Lscala/collection/SeqLike;Lscala/collection/Seq;)I
const #786 = Method	#96.#785;	//  scala/collection/SeqLike$class.indexOfSlice:(Lscala/collection/SeqLike;Lscala/collection/Seq;)I
const #787 = Asciz	startsWith;
const #788 = NameAndType	#787:#694;//  startsWith:(Lscala/collection/SeqLike;Lscala/collection/Seq;)Z
const #789 = Method	#96.#788;	//  scala/collection/SeqLike$class.startsWith:(Lscala/collection/SeqLike;Lscala/collection/Seq;)Z
const #790 = Asciz	reversedElements;
const #791 = Asciz	(Lscala/collection/SeqLike;)Lscala/collection/Iterator;;
const #792 = NameAndType	#790:#791;//  reversedElements:(Lscala/collection/SeqLike;)Lscala/collection/Iterator;
const #793 = Method	#96.#792;	//  scala/collection/SeqLike$class.reversedElements:(Lscala/collection/SeqLike;)Lscala/collection/Iterator;
const #794 = Asciz	reverseMap;
const #795 = Asciz	(Lscala/collection/SeqLike;Lscala/Function1;Lscala/collection/generic/CanBuildFrom;)Ljava/lang/Object;;
const #796 = NameAndType	#794:#795;//  reverseMap:(Lscala/collection/SeqLike;Lscala/Function1;Lscala/collection/generic/CanBuildFrom;)Ljava/lang/Object;
const #797 = Method	#96.#796;	//  scala/collection/SeqLike$class.reverseMap:(Lscala/collection/SeqLike;Lscala/Function1;Lscala/collection/generic/CanBuildFrom;)Ljava/lang/Object;
const #798 = Asciz	lastIndexWhere;
const #799 = NameAndType	#798:#704;//  lastIndexWhere:(Lscala/collection/SeqLike;Lscala/Function1;)I
const #800 = Method	#96.#799;	//  scala/collection/SeqLike$class.lastIndexWhere:(Lscala/collection/SeqLike;Lscala/Function1;)I
const #801 = Asciz	lastIndexOf;
const #802 = Asciz	(Ljava/lang/Object;I)I;
const #803 = Asciz	(Lscala/collection/SeqLike;Ljava/lang/Object;I)I;
const #804 = NameAndType	#801:#803;//  lastIndexOf:(Lscala/collection/SeqLike;Ljava/lang/Object;I)I
const #805 = Method	#96.#804;	//  scala/collection/SeqLike$class.lastIndexOf:(Lscala/collection/SeqLike;Ljava/lang/Object;I)I
const #806 = Asciz	(Lscala/collection/SeqLike;Ljava/lang/Object;)I;
const #807 = NameAndType	#801:#806;//  lastIndexOf:(Lscala/collection/SeqLike;Ljava/lang/Object;)I
const #808 = Method	#96.#807;	//  scala/collection/SeqLike$class.lastIndexOf:(Lscala/collection/SeqLike;Ljava/lang/Object;)I
const #809 = Asciz	indexOf;
const #810 = NameAndType	#809:#803;//  indexOf:(Lscala/collection/SeqLike;Ljava/lang/Object;I)I
const #811 = Method	#96.#810;	//  scala/collection/SeqLike$class.indexOf:(Lscala/collection/SeqLike;Ljava/lang/Object;I)I
const #812 = NameAndType	#809:#806;//  indexOf:(Lscala/collection/SeqLike;Ljava/lang/Object;)I
const #813 = Method	#96.#812;	//  scala/collection/SeqLike$class.indexOf:(Lscala/collection/SeqLike;Ljava/lang/Object;)I
const #814 = Asciz	findIndexOf;
const #815 = NameAndType	#814:#704;//  findIndexOf:(Lscala/collection/SeqLike;Lscala/Function1;)I
const #816 = Method	#96.#815;	//  scala/collection/SeqLike$class.findIndexOf:(Lscala/collection/SeqLike;Lscala/Function1;)I
const #817 = Asciz	indexWhere;
const #818 = NameAndType	#817:#704;//  indexWhere:(Lscala/collection/SeqLike;Lscala/Function1;)I
const #819 = Method	#96.#818;	//  scala/collection/SeqLike$class.indexWhere:(Lscala/collection/SeqLike;Lscala/Function1;)I
const #820 = Asciz	prefixLength;
const #821 = NameAndType	#820:#704;//  prefixLength:(Lscala/collection/SeqLike;Lscala/Function1;)I
const #822 = Method	#96.#821;	//  scala/collection/SeqLike$class.prefixLength:(Lscala/collection/SeqLike;Lscala/Function1;)I
const #823 = Asciz	(Lscala/collection/SeqLike;I)Z;
const #824 = NameAndType	#234:#823;//  isDefinedAt:(Lscala/collection/SeqLike;I)Z
const #825 = Method	#96.#824;	//  scala/collection/SeqLike$class.isDefinedAt:(Lscala/collection/SeqLike;I)Z
const #826 = Asciz	size;
const #827 = NameAndType	#826:#322;//  size:(Lscala/collection/SeqLike;)I
const #828 = Method	#96.#827;	//  scala/collection/SeqLike$class.size:(Lscala/collection/SeqLike;)I
const #829 = Asciz	(Lscala/collection/IndexedSeqLike;II)Lscala/collection/IndexedSeqView;;
const #830 = NameAndType	#225:#829;//  view:(Lscala/collection/IndexedSeqLike;II)Lscala/collection/IndexedSeqView;
const #831 = Method	#111.#830;	//  scala/collection/IndexedSeqLike$class.view:(Lscala/collection/IndexedSeqLike;II)Lscala/collection/IndexedSeqView;
const #832 = Asciz	(Lscala/collection/IndexedSeqLike;)Ljava/lang/Object;;
const #833 = NameAndType	#225:#832;//  view:(Lscala/collection/IndexedSeqLike;)Ljava/lang/Object;
const #834 = Method	#111.#833;	//  scala/collection/IndexedSeqLike$class.view:(Lscala/collection/IndexedSeqLike;)Ljava/lang/Object;
const #835 = Asciz	endsWith;
const #836 = Asciz	(Lscala/collection/IndexedSeqLike;Lscala/collection/Seq;)Z;
const #837 = NameAndType	#835:#836;//  endsWith:(Lscala/collection/IndexedSeqLike;Lscala/collection/Seq;)Z
const #838 = Method	#111.#837;	//  scala/collection/IndexedSeqLike$class.endsWith:(Lscala/collection/IndexedSeqLike;Lscala/collection/Seq;)Z
const #839 = Asciz	(Lscala/collection/Seq;I)Z;
const #840 = Asciz	(Lscala/collection/IndexedSeqLike;Lscala/collection/Seq;I)Z;
const #841 = NameAndType	#787:#840;//  startsWith:(Lscala/collection/IndexedSeqLike;Lscala/collection/Seq;I)Z
const #842 = Method	#111.#841;	//  scala/collection/IndexedSeqLike$class.startsWith:(Lscala/collection/IndexedSeqLike;Lscala/collection/Seq;I)Z
const #843 = Asciz	offset;
const #844 = Asciz	reverseIterator;
const #845 = Asciz	(Lscala/collection/IndexedSeqLike;)Lscala/collection/Iterator;;
const #846 = NameAndType	#844:#845;//  reverseIterator:(Lscala/collection/IndexedSeqLike;)Lscala/collection/Iterator;
const #847 = Method	#111.#846;	//  scala/collection/IndexedSeqLike$class.reverseIterator:(Lscala/collection/IndexedSeqLike;)Lscala/collection/Iterator;
const #848 = Asciz	reverse;
const #849 = NameAndType	#848:#832;//  reverse:(Lscala/collection/IndexedSeqLike;)Ljava/lang/Object;
const #850 = Method	#111.#849;	//  scala/collection/IndexedSeqLike$class.reverse:(Lscala/collection/IndexedSeqLike;)Ljava/lang/Object;
const #851 = Asciz	(Lscala/Function1;I)I;
const #852 = Asciz	(Lscala/collection/IndexedSeqLike;Lscala/Function1;I)I;
const #853 = NameAndType	#798:#852;//  lastIndexWhere:(Lscala/collection/IndexedSeqLike;Lscala/Function1;I)I
const #854 = Method	#111.#853;	//  scala/collection/IndexedSeqLike$class.lastIndexWhere:(Lscala/collection/IndexedSeqLike;Lscala/Function1;I)I
const #855 = NameAndType	#817:#852;//  indexWhere:(Lscala/collection/IndexedSeqLike;Lscala/Function1;I)I
const #856 = Method	#111.#855;	//  scala/collection/IndexedSeqLike$class.indexWhere:(Lscala/collection/IndexedSeqLike;Lscala/Function1;I)I
const #857 = Asciz	segmentLength;
const #858 = NameAndType	#857:#852;//  segmentLength:(Lscala/collection/IndexedSeqLike;Lscala/Function1;I)I
const #859 = Method	#111.#858;	//  scala/collection/IndexedSeqLike$class.segmentLength:(Lscala/collection/IndexedSeqLike;Lscala/Function1;I)I
const #860 = Asciz	lengthCompare;
const #861 = Asciz	(I)I;
const #862 = Asciz	(Lscala/collection/IndexedSeqLike;I)I;
const #863 = NameAndType	#860:#862;//  lengthCompare:(Lscala/collection/IndexedSeqLike;I)I
const #864 = Method	#111.#863;	//  scala/collection/IndexedSeqLike$class.lengthCompare:(Lscala/collection/IndexedSeqLike;I)I
const #865 = Asciz	(Ljava/lang/Object;II)V;
const #866 = Asciz	(Lscala/collection/IndexedSeqLike;Ljava/lang/Object;II)V;
[...]
   0      7      2    offset       I


public scala.collection.Iterator reverseIterator();
  Code:
   Stack=1, Locals=1, Args_size=1
   0:	aload_0
   1:	invokestatic	#847; //Method scala/collection/IndexedSeqLike$class.reverseIterator:(Lscala/collection/IndexedSeqLike;)Lscala/collection/Iterator;
   4:	areturn
  LineNumberTable: 
   line 37: 0


public java.lang.Object reverse();
  Code:
   Stack=1, Locals=1, Args_size=1
   0:	aload_0
   1:	invokestatic	#850; //Method scala/collection/IndexedSeqLike$class.reverse:(Lscala/collection/IndexedSeqLike;)Ljava/lang/Object;
   4:	areturn
  LineNumberTable: 
   line 37: 0


public int lastIndexWhere(scala.Function1, int);
  Code:
   Stack=3, Locals=3, Args_size=3
   0:	aload_0
   1:	aload_1
   2:	iload_2
   3:	invokestatic	#854; //Method scala/collection/IndexedSeqLike$class.lastIndexWhere:(Lscala/collection/IndexedSeqLike;Lscala/Function1;I)I
   6:	ireturn
  LineNumberTable: 
   line 37: 0

  LocalVariableTable: 
   Start  Length  Slot  Name   Signature
   0      7      0    this       Lscala/collection/immutable/NumericRange;
   0      7      1    p       Lscala/Function1;
   0      7      2    end       I


public int indexWhere(scala.Function1, int);
  Code:
   Stack=3, Locals=3, Args_size=3
   0:	aload_0
   1:	aload_1
   2:	iload_2
   3:	invokestatic	#856; //Method scala/collection/IndexedSeqLike$class.indexWhere:(Lscala/collection/IndexedSeqLike;Lscala/Function1;I)I
   6:	ireturn
  LineNumberTable: 
   line 37: 0

  LocalVariableTable: 
   Start  Length  Slot  Name   Signature
   0      7      0    this       Lscala/collection/immutable/NumericRange;
   0      7      1    p       Lscala/Function1;
   0      7      2    from       I


public int segmentLength(scala.Function1, int);
  Code:
   Stack=3, Locals=3, Args_size=3
   0:	aload_0
   1:	aload_1
   2:	iload_2
   3:	invokestatic	#859; //Method scala/collection/IndexedSeqLike$class.segmentLength:(Lscala/collection/IndexedSeqLike;Lscala/Function1;I)I
   6:	ireturn
  LineNumberTable: 
   line 37: 0

  LocalVariableTable: 
   Start  Length  Slot  Name   Signature
   0      7      0    this       Lscala/collection/immutable/NumericRange;
   0      7      1    p       Lscala/Function1;
   0      7      2    from       I


public int lengthCompare(int);
  Code:
   Stack=2, Locals=2, Args_size=2
   0:	aload_0
   1:	iload_1
   2:	invokestatic	#864; //Method scala/collection/IndexedSeqLike$class.lengthCompare:(Lscala/collection/IndexedSeqLike;I)I
   5:	ireturn
  LineNumberTable: 
   line 37: 0

  LocalVariableTable: 
   Start  Length  Slot  Name   Signature
   0      6      0    this       Lscala/collection/immutable/NumericRange;
   0      6      1    len       I


public void copyToArray(java.lang.Object, int, int);
  Code:
   Stack=4, Locals=4, Args_size=4
   0:	aload_0
   1:	aload_1
   2:	iload_2
   3:	iload_3
   4:	invokestatic	#868; //Method scala/collection/IndexedSeqLike$class.copyToArray:(Lscala/collection/IndexedSeqLike;Ljava/lang/Object;II)V
   7:	return
  LineNumberTable: 
   line 37: 0

  LocalVariableTable: 
   Start  Length  Slot  Name   Signature
   0      8      0    this       Lscala/collection/immutable/NumericRange;
   0      8      1    xs       Ljava/lang/Object;
   0      8      2    start       I
   0      8      3    len       I


public boolean sameElements(scala.collection.Iterable);
  Code:
   Stack=2, Locals=2, Args_size=2
   0:	aload_0
   1:	aload_1
   2:	invokestatic	#873; //Method scala/collection/IndexedSeqLike$class.sameElements:(Lscala/collection/IndexedSeqLike;Lscala/collection/Iterable;)Z
   5:	ireturn
  LineNumberTable: 
   line 37: 0

  LocalVariableTable: 
   Start  Length  Slot  Name   Signature
   0      6      0    this       Lscala/collection/immutable/NumericRange;
   0      6      1    that       Lscala/collection/Iterable;


public scala.Tuple2 span(scala.Function1);
  Code:
   Stack=2, Locals=2, Args_size=2
   0:	aload_0
   1:	aload_1
   2:	invokestatic	#877; //Method scala/collection/IndexedSeqLike$class.span:(Lscala/collection/IndexedSeqLike;Lscala/Function1;)Lscala/Tuple2;
   5:	areturn
  LineNumberTable: 
   line 37: 0

  LocalVariableTable: 
   Start  Length  Slot  Name   Signature
   0      6      0    this       Lscala/collection/immutable/NumericRange;
   0      6      1    p       Lscala/Function1;


public java.lang.Object dropWhile(scala.Function1);
  Code:
   Stack=2, Locals=2, Args_size=2
   0:	aload_0
   1:	aload_1
   2:	invokestatic	#881; //Method scala/collection/IndexedSeqLike$class.dropWhile:(Lscala/collection/IndexedSeqLike;Lscala/Function1;)Ljava/lang/Object;
   5:	areturn
  LineNumberTable: 
   line 37: 0

  LocalVariableTable: 
   Start  Length  Slot  Name   Signature
   0      6      0    this       Lscala/collection/immutable/NumericRange;
   0      6      1    p       Lscala/Function1;


public java.lang.Object takeWhile(scala.Function1);
  Code:
   Stack=2, Locals=2, Args_size=2
   0:	aload_0
   1:	aload_1
   2:	invokestatic	#884; //Method scala/collection/IndexedSeqLike$class.takeWhile:(Lscala/collection/IndexedSeqLike;Lscala/Function1;)Ljava/lang/Object;
   5:	areturn
  LineNumberTable: 
   line 37: 0

  LocalVariableTable: 
   Start  Length  Slot  Name   Signature
   0      6      0    this       Lscala/collection/immutable/NumericRange;
   0      6      1    p       Lscala/Function1;


public scala.Tuple2 splitAt(int);
  Code:
   Stack=2, Locals=2, Args_size=2
   0:	aload_0
   1:	iload_1
   2:	invokestatic	#889; //Method scala/collection/IndexedSeqLike$class.splitAt:(Lscala/collection/IndexedSeqLike;I)Lscala/Tuple2;
   5:	areturn
  LineNumberTable: 
   line 37: 0

  LocalVariableTable: 
   Start  Length  Slot  Name   Signature
   0      6      0    this       Lscala/collection/immutable/NumericRange;
   0      6      1    n       I


public java.lang.Object dropRight(int);
  Code:
   Stack=2, Locals=2, Args_size=2
   0:	aload_0
   1:	iload_1
   2:	invokestatic	#894; //Method scala/collection/IndexedSeqLike$class.dropRight:(Lscala/collection/IndexedSeqLike;I)Ljava/lang/Object;
   5:	areturn
  LineNumberTable: 
   line 37: 0

  LocalVariableTable: 
   Start  Length  Slot  Name   Signature
   0      6      0    this       Lscala/collection/immutable/NumericRange;
   0      6      1    n       I


public java.lang.Object takeRight(int);
  Code:
   Stack=2, Locals=2, Args_size=2
   0:	aload_0
   1:	iload_1
   2:	invokestatic	#897; //Method scala/collection/IndexedSeqLike$class.takeRight:(Lscala/collection/IndexedSeqLike;I)Ljava/lang/Object;
   5:	areturn
  LineNumberTable: 
   line 37: 0

  LocalVariableTable: 
   Start  Length  Slot  Name   Signature
   0      6      0    this       Lscala/collection/immutable/NumericRange;
   0      6      1    n       I


public java.lang.Object drop(int);
  Code:
   Stack=2, Locals=2, Args_size=2
   0:	aload_0
   1:	iload_1
   2:	invokestatic	#900; //Method scala/collection/IndexedSeqLike$class.drop:(Lscala/collection/IndexedSeqLike;I)Ljava/lang/Object;
   5:	areturn
  LineNumberTable: 
   line 37: 0

  LocalVariableTable: 
   Start  Length  Slot  Name   Signature
   0      6      0    this       Lscala/collection/immutable/NumericRange;
   0      6      1    n       I


public java.lang.Object take(int);
  Code:
   Stack=2, Locals=2, Args_size=2
   0:	aload_0
   1:	iload_1
   2:	invokestatic	#902; //Method scala/collection/IndexedSeqLike$class.take:(Lscala/collection/IndexedSeqLike;I)Ljava/lang/Object;
   5:	areturn
  LineNumberTable: 
   line 37: 0

  LocalVariableTable: 
   Start  Length  Slot  Name   Signature
   0      6      0    this       Lscala/collection/immutable/NumericRange;
   0      6      1    n       I


public java.lang.Object init();
  Code:
   Stack=1, Locals=1, Args_size=1
   0:	aload_0
   1:	invokestatic	#905; //Method scala/collection/IndexedSeqLike$class.init:(Lscala/collection/IndexedSeqLike;)Ljava/lang/Object;
   4:	areturn
  LineNumberTable: 
   line 37: 0


public java.lang.Object last();
  Code:
   Stack=1, Locals=1, Args_size=1
   0:	aload_0
   1:	invokestatic	#907; //Method scala/collection/IndexedSeqLike$class.last:(Lscala/collection/IndexedSeqLike;)Ljava/lang/Object;
   4:	areturn
  LineNumberTable: 
   line 37: 0


public java.lang.Object tail();
  Code:
   Stack=1, Locals=1, Args_size=1
   0:	aload_0
   1:	invokestatic	#910; //Method scala/collection/IndexedSeqLike$class.tail:(Lscala/collection/IndexedSeqLike;)Ljava/lang/Object;
   4:	areturn
  LineNumberTable: 
   line 37: 0


public java.lang.Object head();
  Code:
   Stack=1, Locals=1, Args_size=1
   0:	aload_0
   1:	invokestatic	#913; //Method scala/collection/IndexedSeqLike$class.head:(Lscala/collection/IndexedSeqLike;)Ljava/lang/Object;
   4:	areturn
  LineNumberTable: 
   line 37: 0


public java.lang.Object slice(int, int);
  Code:
   Stack=3, Locals=3, Args_size=3
   0:	aload_0
   1:	iload_1
   2:	iload_2
   3:	invokestatic	#918; //Method scala/collection/IndexedSeqLike$class.slice:(Lscala/collection/IndexedSeqLike;II)Ljava/lang/Object;
   6:	areturn
  LineNumberTable: 
   line 37: 0

  LocalVariableTable: 
   Start  Length  Slot  Name   Signature
   0      7      0    this       Lscala/collection/immutable/NumericRange;
   0      7      1    from       I
   0      7      2    until       I


public java.lang.Object zipWithIndex(scala.collection.generic.CanBuildFrom);
  Code:
   Stack=2, Locals=2, Args_size=2
   0:	aload_0
   1:	aload_1
   2:	invokestatic	#923; //Method scala/collection/IndexedSeqLike$class.zipWithIndex:(Lscala/collection/IndexedSeqLike;Lscala/collection/generic/CanBuildFrom;)Ljava/lang/Object;
   5:	areturn
  LineNumberTable: 
   line 37: 0

  LocalVariableTable: 
   Start  Length  Slot  Name   Signature
   0      6      0    this       Lscala/collection/immutable/NumericRange;
   0      6      1    bf       Lscala/collection/generic/CanBuildFrom;


public java.lang.Object zip(scala.collection.Iterable, scala.collection.generic.CanBuildFrom);
  Code:
   Stack=3, Locals=3, Args_size=3
   0:	aload_0
   1:	aload_1
   2:	aload_2
   3:	invokestatic	#928; //Method scala/collection/IndexedSeqLike$class.zip:(Lscala/collection/IndexedSeqLike;Lscala/collection/Iterable;Lscala/collection/generic/CanBuildFrom;)Ljava/lang/Object;
   6:	areturn
  LineNumberTable: 
   line 37: 0

  LocalVariableTable: 
   Start  Length  Slot  Name   Signature
   0      7      0    this       Lscala/collection/immutable/NumericRange;
   0      7      1    that       Lscala/collection/Iterable;
   0      7      2    bf       Lscala/collection/generic/CanBuildFrom;


public java.lang.Object reduceRight(scala.Function2);
  Code:
   Stack=2, Locals=2, Args_size=2
   0:	aload_0
   1:	aload_1
   2:	invokestatic	#932; //Method scala/collection/IndexedSeqLike$class.reduceRight:(Lscala/collection/IndexedSeqLike;Lscala/Function2;)Ljava/lang/Object;
   5:	areturn
  LineNumberTable: 
   line 37: 0

  LocalVariableTable: 
   Start  Length  Slot  Name   Signature
   0      6      0    this       Lscala/collection/immutable/NumericRange;
   0      6      1    op       Lscala/Function2;


public java.lang.Object reduceLeft(scala.Function2);
  Code:
   Stack=2, Locals=2, Args_size=2
   0:	aload_0
   1:	aload_1
   2:	invokestatic	#935; //Method scala/collection/IndexedSeqLike$class.reduceLeft:(Lscala/collection/IndexedSeqLike;Lscala/Function2;)Ljava/lang/Object;
   5:	areturn
  LineNumberTable: 
   line 37: 0

  LocalVariableTable: 
   Start  Length  Slot  Name   Signature
   0      6      0    this       Lscala/collection/immutable/NumericRange;
   0      6      1    op       Lscala/Function2;


public java.lang.Object foldRight(java.lang.Object, scala.Function2);
  Code:
   Stack=3, Locals=3, Args_size=3
   0:	aload_0
   1:	aload_1
   2:	aload_2
   3:	invokestatic	#939; //Method scala/collection/IndexedSeqLike$class.foldRight:(Lscala/collection/IndexedSeqLike;Ljava/lang/Object;Lscala/Function2;)Ljava/lang/Object;
   6:	areturn
  LineNumberTable: 
   line 37: 0

  LocalVariableTable: 
   Start  Length  Slot  Name   Signature
   0      7      0    this       Lscala/collection/immutable/NumericRange;
   0      7      1    z       Ljava/lang/Object;
   0      7      2    op       Lscala/Function2;


public java.lang.Object foldLeft(java.lang.Object, scala.Function2);
  Code:
   Stack=3, Locals=3, Args_size=3
   0:	aload_0
   1:	aload_1
   2:	aload_2
   3:	invokestatic	#942; //Method scala/collection/IndexedSeqLike$class.foldLeft:(Lscala/collection/IndexedSeqLike;Ljava/lang/Object;Lscala/Function2;)Ljava/lang/Object;
   6:	areturn
  LineNumberTable: 
   line 37: 0

  LocalVariableTable: 
   Start  Length  Slot  Name   Signature
   0      7      0    this       Lscala/collection/immutable/NumericRange;
   0      7      1    z       Ljava/lang/Object;
   0      7      2    op       Lscala/Function2;


public scala.Option find(scala.Function1);
  Code:
   Stack=2, Locals=2, Args_size=2
   0:	aload_0
   1:	aload_1
   2:	invokestatic	#947; //Method scala/collection/IndexedSeqLike$class.find:(Lscala/collection/IndexedSeqLike;Lscala/Function1;)Lscala/Option;
   5:	areturn
  LineNumberTable: 
   line 37: 0

  LocalVariableTable: 
   Start  Length  Slot  Name   Signature
   0      6      0    this       Lscala/collection/immutable/NumericRange;
   0      6      1    p       Lscala/Function1;


public boolean exists(scala.Function1);
  Code:
   Stack=2, Locals=2, Args_size=2
   0:	aload_0
   1:	aload_1
   2:	invokestatic	#952; //Method scala/collection/IndexedSeqLike$class.exists:(Lscala/collection/IndexedSeqLike;Lscala/Function1;)Z
   5:	ireturn
  LineNumberTable: 
   line 37: 0

  LocalVariableTable: 
   Start  Length  Slot  Name   Signature
   0      6      0    this       Lscala/collection/immutable/NumericRange;
   0      6      1    p       Lscala/Function1;


public boolean forall(scala.Function1);
  Code:
   Stack=2, Locals=2, Args_size=2
   0:	aload_0
   1:	aload_1
   2:	invokestatic	#955; //Method scala/collection/IndexedSeqLike$class.forall:(Lscala/collection/IndexedSeqLike;Lscala/Function1;)Z
   5:	ireturn
  LineNumberTable: 
   line 37: 0

  LocalVariableTable: 
   Start  Length  Slot  Name   Signature
   0      6      0    this       Lscala/collection/immutable/NumericRange;
   0      6      1    p       Lscala/Function1;


public scala.collection.Iterator iterator();
  Code:
   Stack=1, Locals=1, Args_size=1
   0:	aload_0
   1:	invokestatic	#958; //Method scala/collection/IndexedSeqLike$class.iterator:(Lscala/collection/IndexedSeqLike;)Lscala/collection/Iterator;
   4:	areturn
  LineNumberTable: 
   line 37: 0


public scala.collection.IndexedSeq toCollection(java.lang.Object);
  Code:
   Stack=2, Locals=2, Args_size=2
   0:	aload_0
   1:	aload_1
   2:	invokestatic	#961; //Method scala/collection/IndexedSeqLike$class.toCollection:(Lscala/collection/IndexedSeqLike;Ljava/lang/Object;)Lscala/collection/IndexedSeq;
   5:	areturn
  LineNumberTable: 
   line 37: 0

  LocalVariableTable: 
   Start  Length  Slot  Name   Signature
   0      6      0    this       Lscala/collection/immutable/NumericRange;
   0      6      1    repr       Ljava/lang/Object;


public scala.collection.IndexedSeq thisCollection();
  Code:
   Stack=1, Locals=1, Args_size=1
   0:	aload_0
   1:	invokestatic	#964; //Method scala/collection/IndexedSeqLike$class.thisCollection:(Lscala/collection/IndexedSeqLike;)Lscala/collection/IndexedSeq;
   4:	areturn
  LineNumberTable: 
   line 37: 0


public final boolean scala$collection$IndexedSeqLike$$super$endsWith(scala.collection.Seq);
  Code:
   Stack=2, Locals=2, Args_size=2
   0:	aload_0
   1:	aload_1
   2:	invokestatic	#967; //Method scala/collection/SeqLike$class.endsWith:(Lscala/collection/SeqLike;Lscala/collection/Seq;)Z
   5:	ireturn
  LineNumberTable: 
   line 37: 0

  LocalVariableTable: 
   Start  Length  Slot  Name   Signature
   0      6      0    this       Lscala/collection/immutable/NumericRange;
   0      6      1    that       Lscala/collection/Seq;


public final boolean scala$collection$IndexedSeqLike$$super$sameElements(scala.collection.Iterable);
  Code:
   Stack=2, Locals=2, Args_size=2
   0:	aload_0
   1:	aload_1
   2:	invokestatic	#971; //Method scala/collection/IterableLike$class.sameElements:(Lscala/collection/IterableLike;Lscala/collection/Iterable;)Z
   5:	ireturn
  LineNumberTable: 
   line 37: 0

  LocalVariableTable: 
   Start  Length  Slot  Name   Signature
   0      6      0    this       Lscala/collection/immutable/NumericRange;
   0      6      1    that       Lscala/collection/Iterable;


public final java.lang.Object scala$collection$IndexedSeqLike$$super$init();
  Code:
   Stack=1, Locals=1, Args_size=1
   0:	aload_0
   1:	invokestatic	#974; //Method scala/collection/TraversableLike$class.init:(Lscala/collection/TraversableLike;)Ljava/lang/Object;
   4:	areturn
  LineNumberTable: 
   line 37: 0


public final java.lang.Object scala$collection$IndexedSeqLike$$super$last();
  Code:
   Stack=1, Locals=1, Args_size=1
   0:	aload_0
   1:	invokestatic	#977; //Method scala/collection/TraversableLike$class.last:(Lscala/collection/TraversableLike;)Ljava/lang/Object;
   4:	areturn
  LineNumberTable: 
   line 37: 0


public final java.lang.Object scala$collection$IndexedSeqLike$$super$tail();
  Code:
   Stack=1, Locals=1, Args_size=1
   0:	aload_0
   1:	invokestatic	#980; //Method scala/collection/TraversableLike$class.tail:(Lscala/collection/TraversableLike;)Ljava/lang/Object;
   4:	areturn
  LineNumberTable: 
   line 37: 0


public final java.lang.Object scala$collection$IndexedSeqLike$$super$head();
  Code:
   Stack=1, Locals=1, Args_size=1
   0:	aload_0
   1:	invokestatic	#983; //Method scala/collection/IterableLike$class.head:(Lscala/collection/IterableLike;)Ljava/lang/Object;
   4:	areturn
  LineNumberTable: 
   line 37: 0


public final java.lang.Object scala$collection$IndexedSeqLike$$super$zip(scala.collection.Iterable, scala.collection.generic.CanBuildFrom);
  Code:
   Stack=3, Locals=3, Args_size=3
   0:	aload_0
   1:	aload_1
   2:	aload_2
   3:	invokestatic	#987; //Method scala/collection/IterableLike$class.zip:(Lscala/collection/IterableLike;Lscala/collection/Iterable;Lscala/collection/generic/CanBuildFrom;)Ljava/lang/Object;
   6:	areturn
  LineNumberTable: 
   line 37: 0

  LocalVariableTable: 
   Start  Length  Slot  Name   Signature
   0      7      0    this       Lscala/collection/immutable/NumericRange;
   0      7      1    that       Lscala/collection/Iterable;
   0      7      2    bf       Lscala/collection/generic/CanBuildFrom;


public final java.lang.Object scala$collection$IndexedSeqLike$$super$reduceRight(scala.Function2);
  Code:
   Stack=2, Locals=2, Args_size=2
   0:	aload_0
   1:	aload_1
   2:	invokestatic	#991; //Method scala/collection/IterableLike$class.reduceRight:(Lscala/collection/IterableLike;Lscala/Function2;)Ljava/lang/Object;
   5:	areturn
  LineNumberTable: 
   line 37: 0

  LocalVariableTable: 
   Start  Length  Slot  Name   Signature
   0      6      0    this       Lscala/collection/immutable/NumericRange;
   0      6      1    op       Lscala/Function2;


public final java.lang.Object scala$collection$IndexedSeqLike$$super$reduceLeft(scala.Function2);
  Code:
   Stack=2, Locals=2, Args_size=2
   0:	aload_0
   1:	aload_1
   2:	invokestatic	#995; //Method scala/collection/TraversableLike$class.reduceLeft:(Lscala/collection/TraversableLike;Lscala/Function2;)Ljava/lang/Object;
   5:	areturn
  LineNumberTable: 
   line 37: 0

  LocalVariableTable: 
   Start  Length  Slot  Name   Signature
   0      6      0    this       Lscala/collection/immutable/NumericRange;
   0      6      1    op       Lscala/Function2;


public scala.collection.generic.GenericCompanion companion();
  Code:
   Stack=1, Locals=1, Args_size=1
   0:	aload_0
   1:	invokestatic	#1000; //Method scala/collection/immutable/IndexedSeq$class.companion:(Lscala/collection/immutable/IndexedSeq;)Lscala/collection/generic/GenericCompanion;
   4:	areturn
  LineNumberTable: 
   line 37: 0


}

