Compiled from "StringOps.scala"
public class scala.collection.immutable.StringOps extends java.lang.Object implements scala.collection.immutable.StringLike,scala.ScalaObject
  SourceFile: "StringOps.scala"
  Signature: length = 0x2
   03 1D 
  ScalaSig: length = 0x1AA
   05 00 41 06 08 01 02 FFFFFF84 FFFFFF80 FFFFFF80 FFFFFF80 00 09 02 09 53
   74 72 69 6E 67 4F 70 73 0A 02 03 04 01 09 69 6D
   6D 75 74 61 62 6C 65 0A 02 05 06 01 0A 63 6F 6C
   6C 65 63 74 69 6F 6E 0A 01 07 01 05 73 63 61 6C
   61 03 00 13 04 00 0A 12 1E 10 02 0B 10 0D 01 0C
   0A 02 0D 0E 01 04 6C 61 6E 67 0A 01 0F 01 04 6A
   61 76 61 09 02 11 0C 02 06 4F 62 6A 65 63 74 10
   03 13 14 16 0D 01 02 09 02 15 02 02 0A 53 74 72
   69 6E 67 4C 69 6B 65 10 02 17 1B 0E 02 18 19 0D
   01 06 09 02 1A 06 01 06 50 72 65 64 65 66 09 02
   1C 1D 02 06 53 74 72 69 6E 67 0A 02 1A 06 10 02
   18 1F 09 02 20 06 02 0B 53 63 61 6C 61 4F 62 6A
   65 63 74 08 08 22 00 FFFFFF82 FFFFFFC2 FFFFFF80 FFFFFF84 20 23 01 04 72
   65 70 72 15 01 16 08 08 25 00 FFFFFF82 FFFFFF80 FFFFFFA0 FFFFFF80 04 16
   01 05 72 65 70 72 20 08 05 27 00 FFFFFF84 00 28 01 06
   3C 69 6E 69 74 3E 14 02 29 2A 10 02 13 00 08 05
   22 26 FFFFFFC0 00 16 08 06 2C 00 FFFFFFA0 FFFFFF84 28 2D 01 0E 74
   68 69 73 43 6F 6C 6C 65 63 74 69 6F 6E 15 01 2E
   10 02 13 2F 09 02 30 02 02 0D 57 72 61 70 70 65
   64 53 74 72 69 6E 67 08 06 32 00 FFFFFFA0 FFFFFF84 28 33 01
   0C 74 6F 43 6F 6C 6C 65 63 74 69 6F 6E 14 02 2E
   34 08 05 22 31 FFFFFFC0 00 16 08 06 36 00 FFFFFFA0 FFFFFF84 28 37
   01 0A 6E 65 77 42 75 69 6C 64 65 72 15 01 38 10
   02 39 3C 0D 01 3A 0A 02 3B 04 01 07 6D 75 74 61
   62 6C 65 09 02 3D 3A 02 0D 53 74 72 69 6E 67 42
   75 69 6C 64 65 72 08 05 3F 00 FFFFFF84 20 40 01 08 74
   6F 53 74 72 69 6E 67 14 01 16 
  InnerClass: 
   public #804= #801 of #803; //WithFilter=class scala/collection/TraversableLike$WithFilter of class scala/collection/TraversableLike
  minor version: 0
  major version: 49
  Constant pool:
const #1 = Asciz	SourceFile;
const #2 = Asciz	StringOps.scala;
const #3 = Asciz	repr;
const #4 = Asciz	Ljava/lang/String;;
const #5 = Asciz	<init>;
const #6 = Asciz	(Ljava/lang/String;)V;
const #7 = Asciz	Code;
const #8 = Asciz	LineNumberTable;
const #9 = Asciz	scala/collection/immutable/StringOps;
const #10 = class	#9;	//  scala/collection/immutable/StringOps
const #11 = NameAndType	#3:#4;//  repr:Ljava/lang/String;
const #12 = Field	#10.#11;	//  scala/collection/immutable/StringOps.repr:Ljava/lang/String;
const #13 = Asciz	java/lang/Object;
const #14 = class	#13;	//  java/lang/Object
const #15 = Asciz	()V;
const #16 = NameAndType	#5:#15;//  "<init>":()V
const #17 = Method	#14.#16;	//  java/lang/Object."<init>":()V
const #18 = Asciz	scala/collection/TraversableLike$class;
const #19 = class	#18;	//  scala/collection/TraversableLike$class
const #20 = Asciz	$init$;
const #21 = Asciz	(Lscala/collection/TraversableLike;)V;
const #22 = NameAndType	#20:#21;//  $init$:(Lscala/collection/TraversableLike;)V
const #23 = Method	#19.#22;	//  scala/collection/TraversableLike$class.$init$:(Lscala/collection/TraversableLike;)V
const #24 = Asciz	scala/collection/IterableLike$class;
const #25 = class	#24;	//  scala/collection/IterableLike$class
const #26 = Asciz	(Lscala/collection/IterableLike;)V;
const #27 = NameAndType	#20:#26;//  $init$:(Lscala/collection/IterableLike;)V
const #28 = Method	#25.#27;	//  scala/collection/IterableLike$class.$init$:(Lscala/collection/IterableLike;)V
const #29 = Asciz	scala/collection/SeqLike$class;
const #30 = class	#29;	//  scala/collection/SeqLike$class
const #31 = Asciz	(Lscala/collection/SeqLike;)V;
const #32 = NameAndType	#20:#31;//  $init$:(Lscala/collection/SeqLike;)V
const #33 = Method	#30.#32;	//  scala/collection/SeqLike$class.$init$:(Lscala/collection/SeqLike;)V
const #34 = Asciz	scala/collection/IndexedSeqLike$class;
const #35 = class	#34;	//  scala/collection/IndexedSeqLike$class
const #36 = Asciz	(Lscala/collection/IndexedSeqLike;)V;
const #37 = NameAndType	#20:#36;//  $init$:(Lscala/collection/IndexedSeqLike;)V
const #38 = Method	#35.#37;	//  scala/collection/IndexedSeqLike$class.$init$:(Lscala/collection/IndexedSeqLike;)V
const #39 = Asciz	scala/math/Ordered$class;
const #40 = class	#39;	//  scala/math/Ordered$class
const #41 = Asciz	(Lscala/math/Ordered;)V;
const #42 = NameAndType	#20:#41;//  $init$:(Lscala/math/Ordered;)V
const #43 = Method	#40.#42;	//  scala/math/Ordered$class.$init$:(Lscala/math/Ordered;)V
const #44 = Asciz	scala/collection/immutable/StringLike$class;
const #45 = class	#44;	//  scala/collection/immutable/StringLike$class
const #46 = Asciz	(Lscala/collection/immutable/StringLike;)V;
const #47 = NameAndType	#20:#46;//  $init$:(Lscala/collection/immutable/StringLike;)V
const #48 = Method	#45.#47;	//  scala/collection/immutable/StringLike$class.$init$:(Lscala/collection/immutable/StringLike;)V
const #49 = Asciz	this;
const #50 = Asciz	Lscala/collection/immutable/StringOps;;
const #51 = Asciz	LocalVariableTable;
const #52 = Asciz	()Ljava/lang/Object;;
const #53 = Asciz	()Ljava/lang/String;;
const #54 = NameAndType	#3:#53;//  repr:()Ljava/lang/String;
const #55 = Method	#10.#54;	//  scala/collection/immutable/StringOps.repr:()Ljava/lang/String;
const #56 = Asciz	thisCollection;
const #57 = Asciz	()Lscala/collection/IndexedSeq;;
const #58 = Asciz	()Lscala/collection/immutable/WrappedString;;
const #59 = NameAndType	#56:#58;//  thisCollection:()Lscala/collection/immutable/WrappedString;
const #60 = Method	#10.#59;	//  scala/collection/immutable/StringOps.thisCollection:()Lscala/collection/immutable/WrappedString;
const #61 = Asciz	()Lscala/collection/Seq;;
const #62 = Asciz	()Lscala/collection/Iterable;;
const #63 = Asciz	()Lscala/collection/Traversable;;
const #64 = Asciz	toCollection;
const #65 = Asciz	(Ljava/lang/Object;)Lscala/collection/IndexedSeq;;
const #66 = Asciz	java/lang/String;
const #67 = class	#66;	//  java/lang/String
const #68 = Asciz	(Ljava/lang/String;)Lscala/collection/immutable/WrappedString;;
const #69 = NameAndType	#64:#68;//  toCollection:(Ljava/lang/String;)Lscala/collection/immutable/WrappedString;
const #70 = Method	#10.#69;	//  scala/collection/immutable/StringOps.toCollection:(Ljava/lang/String;)Lscala/collection/immutable/WrappedString;
const #71 = Asciz	Ljava/lang/Object;;
const #72 = Asciz	(Ljava/lang/Object;)Lscala/collection/Seq;;
const #73 = Asciz	(Ljava/lang/Object;)Lscala/collection/Iterable;;
const #74 = Asciz	(Ljava/lang/Object;)Lscala/collection/Traversable;;
const #75 = Asciz	newBuilder;
const #76 = Asciz	()Lscala/collection/mutable/Builder;;
const #77 = Asciz	()Lscala/collection/mutable/StringBuilder;;
const #78 = NameAndType	#75:#77;//  newBuilder:()Lscala/collection/mutable/StringBuilder;
const #79 = Method	#10.#78;	//  scala/collection/immutable/StringOps.newBuilder:()Lscala/collection/mutable/StringBuilder;
const #80 = Asciz	apply;
const #81 = Asciz	(I)Ljava/lang/Object;;
const #82 = Asciz	scala/collection/immutable/StringLike;
const #83 = class	#82;	//  scala/collection/immutable/StringLike
const #84 = Asciz	(I)C;
const #85 = NameAndType	#80:#84;//  apply:(I)C
const #86 = InterfaceMethod	#83.#85;	//  scala/collection/immutable/StringLike.apply:(I)C
const #87 = Asciz	scala/runtime/BoxesRunTime;
const #88 = class	#87;	//  scala/runtime/BoxesRunTime
const #89 = Asciz	boxToCharacter;
const #90 = Asciz	(C)Ljava/lang/Character;;
const #91 = NameAndType	#89:#90;//  boxToCharacter:(C)Ljava/lang/Character;
const #92 = Method	#88.#91;	//  scala/runtime/BoxesRunTime.boxToCharacter:(C)Ljava/lang/Character;
const #93 = Asciz	idx;
const #94 = Asciz	I;
const #95 = Asciz	compare;
const #96 = Asciz	(Ljava/lang/Object;)I;
const #97 = Asciz	(Ljava/lang/String;)I;
const #98 = NameAndType	#95:#97;//  compare:(Ljava/lang/String;)I
const #99 = InterfaceMethod	#83.#98;	//  scala/collection/immutable/StringLike.compare:(Ljava/lang/String;)I
const #100 = Asciz	that;
const #101 = Asciz	view;
const #102 = Asciz	(II)Lscala/collection/SeqView;;
const #103 = Asciz	scala/collection/IndexedSeqLike;
const #104 = class	#103;	//  scala/collection/IndexedSeqLike
const #105 = Asciz	(II)Lscala/collection/IndexedSeqView;;
const #106 = NameAndType	#101:#105;//  view:(II)Lscala/collection/IndexedSeqView;
const #107 = InterfaceMethod	#104.#106;	//  scala/collection/IndexedSeqLike.view:(II)Lscala/collection/IndexedSeqView;
const #108 = Asciz	from;
const #109 = Asciz	until;
const #110 = Asciz	(II)Lscala/collection/IterableView;;
const #111 = Asciz	(II)Lscala/collection/TraversableView;;
const #112 = Asciz	toString;
const #113 = Asciz	scala/collection/mutable/StringBuilder;
const #114 = class	#113;	//  scala/collection/mutable/StringBuilder
const #115 = Method	#114.#16;	//  scala/collection/mutable/StringBuilder."<init>":()V
const #116 = Asciz	scala/collection/immutable/WrappedString;
const #117 = class	#116;	//  scala/collection/immutable/WrappedString
const #118 = NameAndType	#5:#6;//  "<init>":(Ljava/lang/String;)V
const #119 = Method	#117.#118;	//  scala/collection/immutable/WrappedString."<init>":(Ljava/lang/String;)V
const #120 = Asciz	withFilter;
const #121 = Asciz	(Lscala/Function1;)Lscala/collection/TraversableLike$WithFilter;;
const #122 = Asciz	(Lscala/collection/TraversableLike;Lscala/Function1;)Lscala/collection/TraversableLike$WithFilter;;
const #123 = NameAndType	#120:#122;//  withFilter:(Lscala/collection/TraversableLike;Lscala/Function1;)Lscala/collection/TraversableLike$WithFilter;
const #124 = Method	#19.#123;	//  scala/collection/TraversableLike$class.withFilter:(Lscala/collection/TraversableLike;Lscala/Function1;)Lscala/collection/TraversableLike$WithFilter;
const #125 = Asciz	p;
const #126 = Asciz	Lscala/Function1;;
const #127 = Asciz	Signature;
const #128 = Asciz	stringPrefix;
const #129 = Asciz	(Lscala/collection/TraversableLike;)Ljava/lang/String;;
const #130 = NameAndType	#128:#129;//  stringPrefix:(Lscala/collection/TraversableLike;)Ljava/lang/String;
const #131 = Method	#19.#130;	//  scala/collection/TraversableLike$class.stringPrefix:(Lscala/collection/TraversableLike;)Ljava/lang/String;
const #132 = Asciz	addString;
const #133 = Asciz	(Lscala/collection/mutable/StringBuilder;)Lscala/collection/mutable/StringBuilder;;
const #134 = Asciz	(Lscala/collection/TraversableLike;Lscala/collection/mutable/StringBuilder;)Lscala/collection/mutable/StringBuilder;;
const #135 = NameAndType	#132:#134;//  addString:(Lscala/collection/TraversableLike;Lscala/collection/mutable/StringBuilder;)Lscala/collection/mutable/StringBuilder;
const #136 = Method	#19.#135;	//  scala/collection/TraversableLike$class.addString:(Lscala/collection/TraversableLike;Lscala/collection/mutable/StringBuilder;)Lscala/collection/mutable/StringBuilder;
const #137 = Asciz	b;
const #138 = Asciz	Lscala/collection/mutable/StringBuilder;;
const #139 = Asciz	(Lscala/collection/mutable/StringBuilder;Ljava/lang/String;)Lscala/collection/mutable/StringBuilder;;
const #140 = Asciz	(Lscala/collection/TraversableLike;Lscala/collection/mutable/StringBuilder;Ljava/lang/String;)Lscala/collection/mutable/StringBuilder;;
const #141 = NameAndType	#132:#140;//  addString:(Lscala/collection/TraversableLike;Lscala/collection/mutable/StringBuilder;Ljava/lang/String;)Lscala/collection/mutable/StringBuilder;
const #142 = Method	#19.#141;	//  scala/collection/TraversableLike$class.addString:(Lscala/collection/TraversableLike;Lscala/collection/mutable/StringBuilder;Ljava/lang/String;)Lscala/collection/mutable/StringBuilder;
const #143 = Asciz	sep;
const #144 = Asciz	(Lscala/collection/mutable/StringBuilder;Ljava/lang/String;Ljava/lang/String;Ljava/lang/String;)Lscala/collection/mutable/StringBuilder;;
const #145 = Asciz	(Lscala/collection/TraversableLike;Lscala/collection/mutable/StringBuilder;Ljava/lang/String;Ljava/lang/String;Ljava/lang/String;)Lscala/collection/mutable/StringBuilder;;
const #146 = NameAndType	#132:#145;//  addString:(Lscala/collection/TraversableLike;Lscala/collection/mutable/StringBuilder;Ljava/lang/String;Ljava/lang/String;Ljava/lang/String;)Lscala/collection/mutable/StringBuilder;
const #147 = Method	#19.#146;	//  scala/collection/TraversableLike$class.addString:(Lscala/collection/TraversableLike;Lscala/collection/mutable/StringBuilder;Ljava/lang/String;Ljava/lang/String;Ljava/lang/String;)Lscala/collection/mutable/StringBuilder;
const #148 = Asciz	start;
const #149 = Asciz	end;
const #150 = Asciz	mkString;
const #151 = Asciz	(Ljava/lang/String;)Ljava/lang/String;;
const #152 = Asciz	(Lscala/collection/TraversableLike;Ljava/lang/String;)Ljava/lang/String;;
const #153 = NameAndType	#150:#152;//  mkString:(Lscala/collection/TraversableLike;Ljava/lang/String;)Ljava/lang/String;
const #154 = Method	#19.#153;	//  scala/collection/TraversableLike$class.mkString:(Lscala/collection/TraversableLike;Ljava/lang/String;)Ljava/lang/String;
const #155 = Asciz	(Ljava/lang/String;Ljava/lang/String;Ljava/lang/String;)Ljava/lang/String;;
const #156 = Asciz	(Lscala/collection/TraversableLike;Ljava/lang/String;Ljava/lang/String;Ljava/lang/String;)Ljava/lang/String;;
const #157 = NameAndType	#150:#156;//  mkString:(Lscala/collection/TraversableLike;Ljava/lang/String;Ljava/lang/String;Ljava/lang/String;)Ljava/lang/String;
const #158 = Method	#19.#157;	//  scala/collection/TraversableLike$class.mkString:(Lscala/collection/TraversableLike;Ljava/lang/String;Ljava/lang/String;Ljava/lang/String;)Ljava/lang/String;
const #159 = Asciz	toSet;
const #160 = Asciz	()Lscala/collection/immutable/Set;;
const #161 = Asciz	(Lscala/collection/TraversableLike;)Lscala/collection/immutable/Set;;
const #162 = NameAndType	#159:#161;//  toSet:(Lscala/collection/TraversableLike;)Lscala/collection/immutable/Set;
const #163 = Method	#19.#162;	//  scala/collection/TraversableLike$class.toSet:(Lscala/collection/TraversableLike;)Lscala/collection/immutable/Set;
const #164 = Asciz	toIndexedSeq;
const #165 = Asciz	()Lscala/collection/mutable/IndexedSeq;;
const #166 = Asciz	(Lscala/collection/TraversableLike;)Lscala/collection/mutable/IndexedSeq;;
const #167 = NameAndType	#164:#166;//  toIndexedSeq:(Lscala/collection/TraversableLike;)Lscala/collection/mutable/IndexedSeq;
const #168 = Method	#19.#167;	//  scala/collection/TraversableLike$class.toIndexedSeq:(Lscala/collection/TraversableLike;)Lscala/collection/mutable/IndexedSeq;
const #169 = Asciz	toList;
const #170 = Asciz	()Lscala/collection/immutable/List;;
const #171 = Asciz	(Lscala/collection/TraversableLike;)Lscala/collection/immutable/List;;
const #172 = NameAndType	#169:#171;//  toList:(Lscala/collection/TraversableLike;)Lscala/collection/immutable/List;
const #173 = Method	#19.#172;	//  scala/collection/TraversableLike$class.toList:(Lscala/collection/TraversableLike;)Lscala/collection/immutable/List;
const #174 = Asciz	toArray;
const #175 = Asciz	(Lscala/reflect/ClassManifest;)Ljava/lang/Object;;
const #176 = Asciz	(Lscala/collection/TraversableLike;Lscala/reflect/ClassManifest;)Ljava/lang/Object;;
const #177 = NameAndType	#174:#176;//  toArray:(Lscala/collection/TraversableLike;Lscala/reflect/ClassManifest;)Ljava/lang/Object;
const #178 = Method	#19.#177;	//  scala/collection/TraversableLike$class.toArray:(Lscala/collection/TraversableLike;Lscala/reflect/ClassManifest;)Ljava/lang/Object;
const #179 = Asciz	evidence$1;
const #180 = Asciz	Lscala/reflect/ClassManifest;;
const #181 = Asciz	copyToArray;
const #182 = Asciz	(Ljava/lang/Object;I)V;
const #183 = Asciz	(Lscala/collection/TraversableLike;Ljava/lang/Object;I)V;
const #184 = NameAndType	#181:#183;//  copyToArray:(Lscala/collection/TraversableLike;Ljava/lang/Object;I)V
const #185 = Method	#19.#184;	//  scala/collection/TraversableLike$class.copyToArray:(Lscala/collection/TraversableLike;Ljava/lang/Object;I)V
const #186 = Asciz	xs;
const #187 = Asciz	copyToBuffer;
const #188 = Asciz	(Lscala/collection/mutable/Buffer;)V;
const #189 = Asciz	(Lscala/collection/TraversableLike;Lscala/collection/mutable/Buffer;)V;
const #190 = NameAndType	#187:#189;//  copyToBuffer:(Lscala/collection/TraversableLike;Lscala/collection/mutable/Buffer;)V
const #191 = Method	#19.#190;	//  scala/collection/TraversableLike$class.copyToBuffer:(Lscala/collection/TraversableLike;Lscala/collection/mutable/Buffer;)V
const #192 = Asciz	dest;
const #193 = Asciz	Lscala/collection/mutable/Buffer;;
const #194 = Asciz	lastOption;
const #195 = Asciz	()Lscala/Option;;
const #196 = Asciz	(Lscala/collection/TraversableLike;)Lscala/Option;;
const #197 = NameAndType	#194:#196;//  lastOption:(Lscala/collection/TraversableLike;)Lscala/Option;
const #198 = Method	#19.#197;	//  scala/collection/TraversableLike$class.lastOption:(Lscala/collection/TraversableLike;)Lscala/Option;
const #199 = Asciz	headOption;
const #200 = NameAndType	#199:#196;//  headOption:(Lscala/collection/TraversableLike;)Lscala/Option;
const #201 = Method	#19.#200;	//  scala/collection/TraversableLike$class.headOption:(Lscala/collection/TraversableLike;)Lscala/Option;
const #202 = Asciz	max;
const #203 = Asciz	(Lscala/math/Ordering;)Ljava/lang/Object;;
const #204 = Asciz	(Lscala/collection/TraversableLike;Lscala/math/Ordering;)Ljava/lang/Object;;
const #205 = NameAndType	#202:#204;//  max:(Lscala/collection/TraversableLike;Lscala/math/Ordering;)Ljava/lang/Object;
const #206 = Method	#19.#205;	//  scala/collection/TraversableLike$class.max:(Lscala/collection/TraversableLike;Lscala/math/Ordering;)Ljava/lang/Object;
const #207 = Asciz	cmp;
const #208 = Asciz	Lscala/math/Ordering;;
const #209 = Asciz	min;
const #210 = NameAndType	#209:#204;//  min:(Lscala/collection/TraversableLike;Lscala/math/Ordering;)Ljava/lang/Object;
const #211 = Method	#19.#210;	//  scala/collection/TraversableLike$class.min:(Lscala/collection/TraversableLike;Lscala/math/Ordering;)Ljava/lang/Object;
const #212 = Asciz	product;
const #213 = Asciz	(Lscala/math/Numeric;)Ljava/lang/Object;;
const #214 = Asciz	(Lscala/collection/TraversableLike;Lscala/math/Numeric;)Ljava/lang/Object;;
const #215 = NameAndType	#212:#214;//  product:(Lscala/collection/TraversableLike;Lscala/math/Numeric;)Ljava/lang/Object;
const #216 = Method	#19.#215;	//  scala/collection/TraversableLike$class.product:(Lscala/collection/TraversableLike;Lscala/math/Numeric;)Ljava/lang/Object;
const #217 = Asciz	num;
const #218 = Asciz	Lscala/math/Numeric;;
const #219 = Asciz	sum;
const #220 = NameAndType	#219:#214;//  sum:(Lscala/collection/TraversableLike;Lscala/math/Numeric;)Ljava/lang/Object;
const #221 = Method	#19.#220;	//  scala/collection/TraversableLike$class.sum:(Lscala/collection/TraversableLike;Lscala/math/Numeric;)Ljava/lang/Object;
const #222 = Asciz	reduceRightOption;
const #223 = Asciz	(Lscala/Function2;)Lscala/Option;;
const #224 = Asciz	(Lscala/collection/TraversableLike;Lscala/Function2;)Lscala/Option;;
const #225 = NameAndType	#222:#224;//  reduceRightOption:(Lscala/collection/TraversableLike;Lscala/Function2;)Lscala/Option;
const #226 = Method	#19.#225;	//  scala/collection/TraversableLike$class.reduceRightOption:(Lscala/collection/TraversableLike;Lscala/Function2;)Lscala/Option;
const #227 = Asciz	op;
const #228 = Asciz	Lscala/Function2;;
const #229 = Asciz	reduceLeftOption;
const #230 = NameAndType	#229:#224;//  reduceLeftOption:(Lscala/collection/TraversableLike;Lscala/Function2;)Lscala/Option;
const #231 = Method	#19.#230;	//  scala/collection/TraversableLike$class.reduceLeftOption:(Lscala/collection/TraversableLike;Lscala/Function2;)Lscala/Option;
const #232 = Asciz	$colon$bslash;
const #233 = Asciz	(Ljava/lang/Object;Lscala/Function2;)Ljava/lang/Object;;
const #234 = Asciz	(Lscala/collection/TraversableLike;Ljava/lang/Object;Lscala/Function2;)Ljava/lang/Object;;
const #235 = NameAndType	#232:#234;//  $colon$bslash:(Lscala/collection/TraversableLike;Ljava/lang/Object;Lscala/Function2;)Ljava/lang/Object;
const #236 = Method	#19.#235;	//  scala/collection/TraversableLike$class.$colon$bslash:(Lscala/collection/TraversableLike;Ljava/lang/Object;Lscala/Function2;)Ljava/lang/Object;
const #237 = Asciz	z;
const #238 = Asciz	$div$colon;
const #239 = NameAndType	#238:#234;//  $div$colon:(Lscala/collection/TraversableLike;Ljava/lang/Object;Lscala/Function2;)Ljava/lang/Object;
const #240 = Method	#19.#239;	//  scala/collection/TraversableLike$class.$div$colon:(Lscala/collection/TraversableLike;Ljava/lang/Object;Lscala/Function2;)Ljava/lang/Object;
const #241 = Asciz	count;
const #242 = Asciz	(Lscala/Function1;)I;
const #243 = Asciz	(Lscala/collection/TraversableLike;Lscala/Function1;)I;
const #244 = NameAndType	#241:#243;//  count:(Lscala/collection/TraversableLike;Lscala/Function1;)I
const #245 = Method	#19.#244;	//  scala/collection/TraversableLike$class.count:(Lscala/collection/TraversableLike;Lscala/Function1;)I
const #246 = Asciz	groupBy;
const #247 = Asciz	(Lscala/Function1;)Lscala/collection/Map;;
const #248 = Asciz	(Lscala/collection/TraversableLike;Lscala/Function1;)Lscala/collection/Map;;
const #249 = NameAndType	#246:#248;//  groupBy:(Lscala/collection/TraversableLike;Lscala/Function1;)Lscala/collection/Map;
const #250 = Method	#19.#249;	//  scala/collection/TraversableLike$class.groupBy:(Lscala/collection/TraversableLike;Lscala/Function1;)Lscala/collection/Map;
const #251 = Asciz	f;
const #252 = Asciz	partition;
const #253 = Asciz	(Lscala/Function1;)Lscala/Tuple2;;
const #254 = Asciz	(Lscala/collection/TraversableLike;Lscala/Function1;)Lscala/Tuple2;;
const #255 = NameAndType	#252:#254;//  partition:(Lscala/collection/TraversableLike;Lscala/Function1;)Lscala/Tuple2;
const #256 = Method	#19.#255;	//  scala/collection/TraversableLike$class.partition:(Lscala/collection/TraversableLike;Lscala/Function1;)Lscala/Tuple2;
const #257 = Asciz	partialMap;
const #258 = Asciz	(Lscala/PartialFunction;Lscala/collection/generic/CanBuildFrom;)Ljava/lang/Object;;
const #259 = Asciz	(Lscala/collection/TraversableLike;Lscala/PartialFunction;Lscala/collection/generic/CanBuildFrom;)Ljava/lang/Object;;
const #260 = NameAndType	#257:#259;//  partialMap:(Lscala/collection/TraversableLike;Lscala/PartialFunction;Lscala/collection/generic/CanBuildFrom;)Ljava/lang/Object;
const #261 = Method	#19.#260;	//  scala/collection/TraversableLike$class.partialMap:(Lscala/collection/TraversableLike;Lscala/PartialFunction;Lscala/collection/generic/CanBuildFrom;)Ljava/lang/Object;
const #262 = Asciz	pf;
const #263 = Asciz	Lscala/PartialFunction;;
const #264 = Asciz	bf;
const #265 = Asciz	Lscala/collection/generic/CanBuildFrom;;
const #266 = Asciz	filterNot;
const #267 = Asciz	(Lscala/Function1;)Ljava/lang/Object;;
const #268 = Asciz	(Lscala/collection/TraversableLike;Lscala/Function1;)Ljava/lang/Object;;
const #269 = NameAndType	#266:#268;//  filterNot:(Lscala/collection/TraversableLike;Lscala/Function1;)Ljava/lang/Object;
const #270 = Method	#19.#269;	//  scala/collection/TraversableLike$class.filterNot:(Lscala/collection/TraversableLike;Lscala/Function1;)Ljava/lang/Object;
const #271 = Asciz	filter;
const #272 = NameAndType	#271:#268;//  filter:(Lscala/collection/TraversableLike;Lscala/Function1;)Ljava/lang/Object;
const #273 = Method	#19.#272;	//  scala/collection/TraversableLike$class.filter:(Lscala/collection/TraversableLike;Lscala/Function1;)Ljava/lang/Object;
const #274 = Asciz	flatMap;
const #275 = Asciz	(Lscala/Function1;Lscala/collection/generic/CanBuildFrom;)Ljava/lang/Object;;
const #276 = Asciz	(Lscala/collection/TraversableLike;Lscala/Function1;Lscala/collection/generic/CanBuildFrom;)Ljava/lang/Object;;
const #277 = NameAndType	#274:#276;//  flatMap:(Lscala/collection/TraversableLike;Lscala/Function1;Lscala/collection/generic/CanBuildFrom;)Ljava/lang/Object;
const #278 = Method	#19.#277;	//  scala/collection/TraversableLike$class.flatMap:(Lscala/collection/TraversableLike;Lscala/Function1;Lscala/collection/generic/CanBuildFrom;)Ljava/lang/Object;
const #279 = Asciz	map;
const #280 = NameAndType	#279:#276;//  map:(Lscala/collection/TraversableLike;Lscala/Function1;Lscala/collection/generic/CanBuildFrom;)Ljava/lang/Object;
const #281 = Method	#19.#280;	//  scala/collection/TraversableLike$class.map:(Lscala/collection/TraversableLike;Lscala/Function1;Lscala/collection/generic/CanBuildFrom;)Ljava/lang/Object;
const #282 = Asciz	$plus$plus;
const #283 = Asciz	(Lscala/collection/Iterator;Lscala/collection/generic/CanBuildFrom;)Ljava/lang/Object;;
const #284 = Asciz	(Lscala/collection/TraversableLike;Lscala/collection/Iterator;Lscala/collection/generic/CanBuildFrom;)Ljava/lang/Object;;
const #285 = NameAndType	#282:#284;//  $plus$plus:(Lscala/collection/TraversableLike;Lscala/collection/Iterator;Lscala/collection/generic/CanBuildFrom;)Ljava/lang/Object;
const #286 = Method	#19.#285;	//  scala/collection/TraversableLike$class.$plus$plus:(Lscala/collection/TraversableLike;Lscala/collection/Iterator;Lscala/collection/generic/CanBuildFrom;)Ljava/lang/Object;
const #287 = Asciz	Lscala/collection/Iterator;;
const #288 = Asciz	(Lscala/collection/Traversable;Lscala/collection/generic/CanBuildFrom;)Ljava/lang/Object;;
const #289 = Asciz	(Lscala/collection/TraversableLike;Lscala/collection/Traversable;Lscala/collection/generic/CanBuildFrom;)Ljava/lang/Object;;
const #290 = NameAndType	#282:#289;//  $plus$plus:(Lscala/collection/TraversableLike;Lscala/collection/Traversable;Lscala/collection/generic/CanBuildFrom;)Ljava/lang/Object;
const #291 = Method	#19.#290;	//  scala/collection/TraversableLike$class.$plus$plus:(Lscala/collection/TraversableLike;Lscala/collection/Traversable;Lscala/collection/generic/CanBuildFrom;)Ljava/lang/Object;
const #292 = Asciz	Lscala/collection/Traversable;;
const #293 = Asciz	hasDefiniteSize;
const #294 = Asciz	()Z;
const #295 = Asciz	(Lscala/collection/TraversableLike;)Z;
const #296 = NameAndType	#293:#295;//  hasDefiniteSize:(Lscala/collection/TraversableLike;)Z
const #297 = Method	#19.#296;	//  scala/collection/TraversableLike$class.hasDefiniteSize:(Lscala/collection/TraversableLike;)Z
const #298 = Asciz	nonEmpty;
const #299 = NameAndType	#298:#295;//  nonEmpty:(Lscala/collection/TraversableLike;)Z
const #300 = Method	#19.#299;	//  scala/collection/TraversableLike$class.nonEmpty:(Lscala/collection/TraversableLike;)Z
const #301 = Asciz	firstOption;
const #302 = Asciz	(Lscala/collection/IterableLike;)Lscala/Option;;
const #303 = NameAndType	#301:#302;//  firstOption:(Lscala/collection/IterableLike;)Lscala/Option;
const #304 = Method	#25.#303;	//  scala/collection/IterableLike$class.firstOption:(Lscala/collection/IterableLike;)Lscala/Option;
const #305 = Asciz	first;
const #306 = Asciz	(Lscala/collection/IterableLike;)Ljava/lang/Object;;
const #307 = NameAndType	#305:#306;//  first:(Lscala/collection/IterableLike;)Ljava/lang/Object;
const #308 = Method	#25.#307;	//  scala/collection/IterableLike$class.first:(Lscala/collection/IterableLike;)Ljava/lang/Object;
const #309 = Asciz	canEqual;
const #310 = Asciz	(Ljava/lang/Object;)Z;
const #311 = Asciz	(Lscala/collection/IterableLike;Ljava/lang/Object;)Z;
const #312 = NameAndType	#309:#311;//  canEqual:(Lscala/collection/IterableLike;Ljava/lang/Object;)Z
const #313 = Method	#25.#312;	//  scala/collection/IterableLike$class.canEqual:(Lscala/collection/IterableLike;Ljava/lang/Object;)Z
const #314 = Asciz	toStream;
const #315 = Asciz	()Lscala/collection/immutable/Stream;;
const #316 = Asciz	(Lscala/collection/IterableLike;)Lscala/collection/immutable/Stream;;
const #317 = NameAndType	#314:#316;//  toStream:(Lscala/collection/IterableLike;)Lscala/collection/immutable/Stream;
const #318 = Method	#25.#317;	//  scala/collection/IterableLike$class.toStream:(Lscala/collection/IterableLike;)Lscala/collection/immutable/Stream;
const #319 = Asciz	zipAll;
const #320 = Asciz	(Lscala/collection/Iterable;Ljava/lang/Object;Ljava/lang/Object;Lscala/collection/generic/CanBuildFrom;)Ljava/lang/Object;;
const #321 = Asciz	(Lscala/collection/IterableLike;Lscala/collection/Iterable;Ljava/lang/Object;Ljava/lang/Object;Lscala/collection/generic/CanBuildFrom;)Ljava/lang/Object;;
const #322 = NameAndType	#319:#321;//  zipAll:(Lscala/collection/IterableLike;Lscala/collection/Iterable;Ljava/lang/Object;Ljava/lang/Object;Lscala/collection/generic/CanBuildFrom;)Ljava/lang/Object;
const #323 = Method	#25.#322;	//  scala/collection/IterableLike$class.zipAll:(Lscala/collection/IterableLike;Lscala/collection/Iterable;Ljava/lang/Object;Ljava/lang/Object;Lscala/collection/generic/CanBuildFrom;)Ljava/lang/Object;
const #324 = Asciz	Lscala/collection/Iterable;;
const #325 = Asciz	thisElem;
const #326 = Asciz	thatElem;
const #327 = Asciz	toIterable;
const #328 = Asciz	(Lscala/collection/IterableLike;)Lscala/collection/Iterable;;
const #329 = NameAndType	#327:#328;//  toIterable:(Lscala/collection/IterableLike;)Lscala/collection/Iterable;
const #330 = Method	#25.#329;	//  scala/collection/IterableLike$class.toIterable:(Lscala/collection/IterableLike;)Lscala/collection/Iterable;
const #331 = Asciz	elements;
const #332 = Asciz	()Lscala/collection/Iterator;;
const #333 = Asciz	(Lscala/collection/IterableLike;)Lscala/collection/Iterator;;
const #334 = NameAndType	#331:#333;//  elements:(Lscala/collection/IterableLike;)Lscala/collection/Iterator;
const #335 = Method	#25.#334;	//  scala/collection/IterableLike$class.elements:(Lscala/collection/IterableLike;)Lscala/collection/Iterator;
const #336 = Asciz	projection;
const #337 = Asciz	(Lscala/collection/SeqLike;)Ljava/lang/Object;;
const #338 = NameAndType	#336:#337;//  projection:(Lscala/collection/SeqLike;)Ljava/lang/Object;
const #339 = Method	#30.#338;	//  scala/collection/SeqLike$class.projection:(Lscala/collection/SeqLike;)Ljava/lang/Object;
const #340 = Asciz	containsSlice;
const #341 = Asciz	(Lscala/collection/Seq;)Z;
const #342 = Asciz	(Lscala/collection/SeqLike;Lscala/collection/Seq;)Z;
const #343 = NameAndType	#340:#342;//  containsSlice:(Lscala/collection/SeqLike;Lscala/collection/Seq;)Z
const #344 = Method	#30.#343;	//  scala/collection/SeqLike$class.containsSlice:(Lscala/collection/SeqLike;Lscala/collection/Seq;)Z
const #345 = Asciz	Lscala/collection/Seq;;
const #346 = Asciz	equalsWith;
const #347 = Asciz	(Lscala/collection/Seq;Lscala/Function2;)Z;
const #348 = Asciz	(Lscala/collection/SeqLike;Lscala/collection/Seq;Lscala/Function2;)Z;
const #349 = NameAndType	#346:#348;//  equalsWith:(Lscala/collection/SeqLike;Lscala/collection/Seq;Lscala/Function2;)Z
const #350 = Method	#30.#349;	//  scala/collection/SeqLike$class.equalsWith:(Lscala/collection/SeqLike;Lscala/collection/Seq;Lscala/Function2;)Z
const #351 = Asciz	findLastIndexOf;
const #352 = Asciz	(Lscala/collection/SeqLike;Lscala/Function1;)I;
const #353 = NameAndType	#351:#352;//  findLastIndexOf:(Lscala/collection/SeqLike;Lscala/Function1;)I
const #354 = Method	#30.#353;	//  scala/collection/SeqLike$class.findLastIndexOf:(Lscala/collection/SeqLike;Lscala/Function1;)I
const #355 = Asciz	equals;
const #356 = Asciz	(Lscala/collection/SeqLike;Ljava/lang/Object;)Z;
const #357 = NameAndType	#355:#356;//  equals:(Lscala/collection/SeqLike;Ljava/lang/Object;)Z
const #358 = Method	#30.#357;	//  scala/collection/SeqLike$class.equals:(Lscala/collection/SeqLike;Ljava/lang/Object;)Z
const #359 = Asciz	hashCode;
const #360 = Asciz	()I;
const #361 = Asciz	(Lscala/collection/SeqLike;)I;
const #362 = NameAndType	#359:#361;//  hashCode:(Lscala/collection/SeqLike;)I
const #363 = Method	#30.#362;	//  scala/collection/SeqLike$class.hashCode:(Lscala/collection/SeqLike;)I
const #364 = Asciz	indices;
const #365 = Asciz	()Lscala/collection/immutable/Range;;
const #366 = Asciz	(Lscala/collection/SeqLike;)Lscala/collection/immutable/Range;;
const #367 = NameAndType	#364:#366;//  indices:(Lscala/collection/SeqLike;)Lscala/collection/immutable/Range;
const #368 = Method	#30.#367;	//  scala/collection/SeqLike$class.indices:(Lscala/collection/SeqLike;)Lscala/collection/immutable/Range;
const #369 = Asciz	toSeq;
const #370 = Asciz	(Lscala/collection/SeqLike;)Lscala/collection/Seq;;
const #371 = NameAndType	#369:#370;//  toSeq:(Lscala/collection/SeqLike;)Lscala/collection/Seq;
const #372 = Method	#30.#371;	//  scala/collection/SeqLike$class.toSeq:(Lscala/collection/SeqLike;)Lscala/collection/Seq;
const #373 = Asciz	sortBy;
const #374 = Asciz	(Lscala/Function1;Lscala/math/Ordering;)Ljava/lang/Object;;
const #375 = Asciz	(Lscala/collection/SeqLike;Lscala/Function1;Lscala/math/Ordering;)Ljava/lang/Object;;
const #376 = NameAndType	#373:#375;//  sortBy:(Lscala/collection/SeqLike;Lscala/Function1;Lscala/math/Ordering;)Ljava/lang/Object;
const #377 = Method	#30.#376;	//  scala/collection/SeqLike$class.sortBy:(Lscala/collection/SeqLike;Lscala/Function1;Lscala/math/Ordering;)Ljava/lang/Object;
const #378 = Asciz	ord;
const #379 = Asciz	sortWith;
const #380 = Asciz	(Lscala/collection/SeqLike;Lscala/math/Ordering;)Ljava/lang/Object;;
const #381 = NameAndType	#379:#380;//  sortWith:(Lscala/collection/SeqLike;Lscala/math/Ordering;)Ljava/lang/Object;
const #382 = Method	#30.#381;	//  scala/collection/SeqLike$class.sortWith:(Lscala/collection/SeqLike;Lscala/math/Ordering;)Ljava/lang/Object;
const #383 = Asciz	(Lscala/Function2;)Ljava/lang/Object;;
const #384 = Asciz	(Lscala/collection/SeqLike;Lscala/Function2;)Ljava/lang/Object;;
const #385 = NameAndType	#379:#384;//  sortWith:(Lscala/collection/SeqLike;Lscala/Function2;)Ljava/lang/Object;
const #386 = Method	#30.#385;	//  scala/collection/SeqLike$class.sortWith:(Lscala/collection/SeqLike;Lscala/Function2;)Ljava/lang/Object;
const #387 = Asciz	lt;
const #388 = Asciz	padTo;
const #389 = Asciz	(ILjava/lang/Object;Lscala/collection/generic/CanBuildFrom;)Ljava/lang/Object;;
const #390 = Asciz	(Lscala/collection/SeqLike;ILjava/lang/Object;Lscala/collection/generic/CanBuildFrom;)Ljava/lang/Object;;
const #391 = NameAndType	#388:#390;//  padTo:(Lscala/collection/SeqLike;ILjava/lang/Object;Lscala/collection/generic/CanBuildFrom;)Ljava/lang/Object;
const #392 = Method	#30.#391;	//  scala/collection/SeqLike$class.padTo:(Lscala/collection/SeqLike;ILjava/lang/Object;Lscala/collection/generic/CanBuildFrom;)Ljava/lang/Object;
const #393 = Asciz	len;
const #394 = Asciz	elem;
const #395 = Asciz	$colon$plus;
const #396 = Asciz	(Ljava/lang/Object;Lscala/collection/generic/CanBuildFrom;)Ljava/lang/Object;;
const #397 = Asciz	(Lscala/collection/SeqLike;Ljava/lang/Object;Lscala/collection/generic/CanBuildFrom;)Ljava/lang/Object;;
const #398 = NameAndType	#395:#397;//  $colon$plus:(Lscala/collection/SeqLike;Ljava/lang/Object;Lscala/collection/generic/CanBuildFrom;)Ljava/lang/Object;
const #399 = Method	#30.#398;	//  scala/collection/SeqLike$class.$colon$plus:(Lscala/collection/SeqLike;Ljava/lang/Object;Lscala/collection/generic/CanBuildFrom;)Ljava/lang/Object;
const #400 = Asciz	$plus$colon;
const #401 = NameAndType	#400:#397;//  $plus$colon:(Lscala/collection/SeqLike;Ljava/lang/Object;Lscala/collection/generic/CanBuildFrom;)Ljava/lang/Object;
const #402 = Method	#30.#401;	//  scala/collection/SeqLike$class.$plus$colon:(Lscala/collection/SeqLike;Ljava/lang/Object;Lscala/collection/generic/CanBuildFrom;)Ljava/lang/Object;
const #403 = Asciz	updated;
const #404 = NameAndType	#403:#390;//  updated:(Lscala/collection/SeqLike;ILjava/lang/Object;Lscala/collection/generic/CanBuildFrom;)Ljava/lang/Object;
const #405 = Method	#30.#404;	//  scala/collection/SeqLike$class.updated:(Lscala/collection/SeqLike;ILjava/lang/Object;Lscala/collection/generic/CanBuildFrom;)Ljava/lang/Object;
const #406 = Asciz	index;
const #407 = Asciz	patch;
const #408 = Asciz	(ILscala/collection/Seq;ILscala/collection/generic/CanBuildFrom;)Ljava/lang/Object;;
const #409 = Asciz	(Lscala/collection/SeqLike;ILscala/collection/Seq;ILscala/collection/generic/CanBuildFrom;)Ljava/lang/Object;;
const #410 = NameAndType	#407:#409;//  patch:(Lscala/collection/SeqLike;ILscala/collection/Seq;ILscala/collection/generic/CanBuildFrom;)Ljava/lang/Object;
const #411 = Method	#30.#410;	//  scala/collection/SeqLike$class.patch:(Lscala/collection/SeqLike;ILscala/collection/Seq;ILscala/collection/generic/CanBuildFrom;)Ljava/lang/Object;
const #412 = Asciz	replaced;
const #413 = Asciz	removeDuplicates;
const #414 = NameAndType	#413:#337;//  removeDuplicates:(Lscala/collection/SeqLike;)Ljava/lang/Object;
const #415 = Method	#30.#414;	//  scala/collection/SeqLike$class.removeDuplicates:(Lscala/collection/SeqLike;)Ljava/lang/Object;
const #416 = Asciz	intersect;
const #417 = Asciz	(Lscala/collection/Seq;)Ljava/lang/Object;;
const #418 = Asciz	(Lscala/collection/SeqLike;Lscala/collection/Seq;)Ljava/lang/Object;;
const #419 = NameAndType	#416:#418;//  intersect:(Lscala/collection/SeqLike;Lscala/collection/Seq;)Ljava/lang/Object;
const #420 = Method	#30.#419;	//  scala/collection/SeqLike$class.intersect:(Lscala/collection/SeqLike;Lscala/collection/Seq;)Ljava/lang/Object;
const #421 = Asciz	diff;
const #422 = NameAndType	#421:#418;//  diff:(Lscala/collection/SeqLike;Lscala/collection/Seq;)Ljava/lang/Object;
const #423 = Method	#30.#422;	//  scala/collection/SeqLike$class.diff:(Lscala/collection/SeqLike;Lscala/collection/Seq;)Ljava/lang/Object;
const #424 = Asciz	union;
const #425 = Asciz	(Lscala/collection/Seq;Lscala/collection/generic/CanBuildFrom;)Ljava/lang/Object;;
const #426 = Asciz	(Lscala/collection/SeqLike;Lscala/collection/Seq;Lscala/collection/generic/CanBuildFrom;)Ljava/lang/Object;;
const #427 = NameAndType	#424:#426;//  union:(Lscala/collection/SeqLike;Lscala/collection/Seq;Lscala/collection/generic/CanBuildFrom;)Ljava/lang/Object;
const #428 = Method	#30.#427;	//  scala/collection/SeqLike$class.union:(Lscala/collection/SeqLike;Lscala/collection/Seq;Lscala/collection/generic/CanBuildFrom;)Ljava/lang/Object;
const #429 = Asciz	contains;
const #430 = NameAndType	#429:#356;//  contains:(Lscala/collection/SeqLike;Ljava/lang/Object;)Z
const #431 = Method	#30.#430;	//  scala/collection/SeqLike$class.contains:(Lscala/collection/SeqLike;Ljava/lang/Object;)Z
const #432 = Asciz	lastIndexOfSlice;
const #433 = Asciz	(Lscala/collection/Seq;I)I;
const #434 = Asciz	(Lscala/collection/SeqLike;Lscala/collection/Seq;I)I;
const #435 = NameAndType	#432:#434;//  lastIndexOfSlice:(Lscala/collection/SeqLike;Lscala/collection/Seq;I)I
const #436 = Method	#30.#435;	//  scala/collection/SeqLike$class.lastIndexOfSlice:(Lscala/collection/SeqLike;Lscala/collection/Seq;I)I
const #437 = Asciz	(Lscala/collection/Seq;)I;
const #438 = Asciz	(Lscala/collection/SeqLike;Lscala/collection/Seq;)I;
const #439 = NameAndType	#432:#438;//  lastIndexOfSlice:(Lscala/collection/SeqLike;Lscala/collection/Seq;)I
const #440 = Method	#30.#439;	//  scala/collection/SeqLike$class.lastIndexOfSlice:(Lscala/collection/SeqLike;Lscala/collection/Seq;)I
const #441 = Asciz	indexOfSlice;
const #442 = NameAndType	#441:#434;//  indexOfSlice:(Lscala/collection/SeqLike;Lscala/collection/Seq;I)I
const #443 = Method	#30.#442;	//  scala/collection/SeqLike$class.indexOfSlice:(Lscala/collection/SeqLike;Lscala/collection/Seq;I)I
const #444 = NameAndType	#441:#438;//  indexOfSlice:(Lscala/collection/SeqLike;Lscala/collection/Seq;)I
const #445 = Method	#30.#444;	//  scala/collection/SeqLike$class.indexOfSlice:(Lscala/collection/SeqLike;Lscala/collection/Seq;)I
const #446 = Asciz	startsWith;
const #447 = NameAndType	#446:#342;//  startsWith:(Lscala/collection/SeqLike;Lscala/collection/Seq;)Z
const #448 = Method	#30.#447;	//  scala/collection/SeqLike$class.startsWith:(Lscala/collection/SeqLike;Lscala/collection/Seq;)Z
const #449 = Asciz	reversedElements;
const #450 = Asciz	(Lscala/collection/SeqLike;)Lscala/collection/Iterator;;
const #451 = NameAndType	#449:#450;//  reversedElements:(Lscala/collection/SeqLike;)Lscala/collection/Iterator;
const #452 = Method	#30.#451;	//  scala/collection/SeqLike$class.reversedElements:(Lscala/collection/SeqLike;)Lscala/collection/Iterator;
const #453 = Asciz	reverseMap;
const #454 = Asciz	(Lscala/collection/SeqLike;Lscala/Function1;Lscala/collection/generic/CanBuildFrom;)Ljava/lang/Object;;
const #455 = NameAndType	#453:#454;//  reverseMap:(Lscala/collection/SeqLike;Lscala/Function1;Lscala/collection/generic/CanBuildFrom;)Ljava/lang/Object;
const #456 = Method	#30.#455;	//  scala/collection/SeqLike$class.reverseMap:(Lscala/collection/SeqLike;Lscala/Function1;Lscala/collection/generic/CanBuildFrom;)Ljava/lang/Object;
const #457 = Asciz	lastIndexWhere;
const #458 = NameAndType	#457:#352;//  lastIndexWhere:(Lscala/collection/SeqLike;Lscala/Function1;)I
const #459 = Method	#30.#458;	//  scala/collection/SeqLike$class.lastIndexWhere:(Lscala/collection/SeqLike;Lscala/Function1;)I
const #460 = Asciz	lastIndexOf;
const #461 = Asciz	(Ljava/lang/Object;I)I;
const #462 = Asciz	(Lscala/collection/SeqLike;Ljava/lang/Object;I)I;
const #463 = NameAndType	#460:#462;//  lastIndexOf:(Lscala/collection/SeqLike;Ljava/lang/Object;I)I
const #464 = Method	#30.#463;	//  scala/collection/SeqLike$class.lastIndexOf:(Lscala/collection/SeqLike;Ljava/lang/Object;I)I
const #465 = Asciz	(Lscala/collection/SeqLike;Ljava/lang/Object;)I;
const #466 = NameAndType	#460:#465;//  lastIndexOf:(Lscala/collection/SeqLike;Ljava/lang/Object;)I
const #467 = Method	#30.#466;	//  scala/collection/SeqLike$class.lastIndexOf:(Lscala/collection/SeqLike;Ljava/lang/Object;)I
const #468 = Asciz	indexOf;
const #469 = NameAndType	#468:#462;//  indexOf:(Lscala/collection/SeqLike;Ljava/lang/Object;I)I
const #470 = Method	#30.#469;	//  scala/collection/SeqLike$class.indexOf:(Lscala/collection/SeqLike;Ljava/lang/Object;I)I
const #471 = NameAndType	#468:#465;//  indexOf:(Lscala/collection/SeqLike;Ljava/lang/Object;)I
const #472 = Method	#30.#471;	//  scala/collection/SeqLike$class.indexOf:(Lscala/collection/SeqLike;Ljava/lang/Object;)I
const #473 = Asciz	findIndexOf;
const #474 = NameAndType	#473:#352;//  findIndexOf:(Lscala/collection/SeqLike;Lscala/Function1;)I
const #475 = Method	#30.#474;	//  scala/collection/SeqLike$class.findIndexOf:(Lscala/collection/SeqLike;Lscala/Function1;)I
const #476 = Asciz	indexWhere;
const #477 = NameAndType	#476:#352;//  indexWhere:(Lscala/collection/SeqLike;Lscala/Function1;)I
const #478 = Method	#30.#477;	//  scala/collection/SeqLike$class.indexWhere:(Lscala/collection/SeqLike;Lscala/Function1;)I
const #479 = Asciz	prefixLength;
const #480 = NameAndType	#479:#352;//  prefixLength:(Lscala/collection/SeqLike;Lscala/Function1;)I
const #481 = Method	#30.#480;	//  scala/collection/SeqLike$class.prefixLength:(Lscala/collection/SeqLike;Lscala/Function1;)I
const #482 = Asciz	isDefinedAt;
const #483 = Asciz	(I)Z;
const #484 = Asciz	(Lscala/collection/SeqLike;I)Z;
const #485 = NameAndType	#482:#484;//  isDefinedAt:(Lscala/collection/SeqLike;I)Z
const #486 = Method	#30.#485;	//  scala/collection/SeqLike$class.isDefinedAt:(Lscala/collection/SeqLike;I)Z
const #487 = Asciz	size;
const #488 = NameAndType	#487:#361;//  size:(Lscala/collection/SeqLike;)I
const #489 = Method	#30.#488;	//  scala/collection/SeqLike$class.size:(Lscala/collection/SeqLike;)I
const #490 = Asciz	(Lscala/collection/IndexedSeqLike;II)Lscala/collection/IndexedSeqView;;
const #491 = NameAndType	#101:#490;//  view:(Lscala/collection/IndexedSeqLike;II)Lscala/collection/IndexedSeqView;
const #492 = Method	#35.#491;	//  scala/collection/IndexedSeqLike$class.view:(Lscala/collection/IndexedSeqLike;II)Lscala/collection/IndexedSeqView;
const #493 = Asciz	(Lscala/collection/IndexedSeqLike;)Ljava/lang/Object;;
const #494 = NameAndType	#101:#493;//  view:(Lscala/collection/IndexedSeqLike;)Ljava/lang/Object;
const #495 = Method	#35.#494;	//  scala/collection/IndexedSeqLike$class.view:(Lscala/collection/IndexedSeqLike;)Ljava/lang/Object;
const #496 = Asciz	endsWith;
const #497 = Asciz	(Lscala/collection/IndexedSeqLike;Lscala/collection/Seq;)Z;
const #498 = NameAndType	#496:#497;//  endsWith:(Lscala/collection/IndexedSeqLike;Lscala/collection/Seq;)Z
const #499 = Method	#35.#498;	//  scala/collection/IndexedSeqLike$class.endsWith:(Lscala/collection/IndexedSeqLike;Lscala/collection/Seq;)Z
const #500 = Asciz	(Lscala/collection/Seq;I)Z;
const #501 = Asciz	(Lscala/collection/IndexedSeqLike;Lscala/collection/Seq;I)Z;
const #502 = NameAndType	#446:#501;//  startsWith:(Lscala/collection/IndexedSeqLike;Lscala/collection/Seq;I)Z
const #503 = Method	#35.#502;	//  scala/collection/IndexedSeqLike$class.startsWith:(Lscala/collection/IndexedSeqLike;Lscala/collection/Seq;I)Z
const #504 = Asciz	offset;
const #505 = Asciz	reverseIterator;
const #506 = Asciz	(Lscala/collection/IndexedSeqLike;)Lscala/collection/Iterator;;
const #507 = NameAndType	#505:#506;//  reverseIterator:(Lscala/collection/IndexedSeqLike;)Lscala/collection/Iterator;
const #508 = Method	#35.#507;	//  scala/collection/IndexedSeqLike$class.reverseIterator:(Lscala/collection/IndexedSeqLike;)Lscala/collection/Iterator;
const #509 = Asciz	reverse;
const #510 = NameAndType	#509:#493;//  reverse:(Lscala/collection/IndexedSeqLike;)Ljava/lang/Object;
const #511 = Method	#35.#510;	//  scala/collection/IndexedSeqLike$class.reverse:(Lscala/collection/IndexedSeqLike;)Ljava/lang/Object;
const #512 = Asciz	(Lscala/Function1;I)I;
const #513 = Asciz	(Lscala/collection/IndexedSeqLike;Lscala/Function1;I)I;
const #514 = NameAndType	#457:#513;//  lastIndexWhere:(Lscala/collection/IndexedSeqLike;Lscala/Function1;I)I
const #515 = Method	#35.#514;	//  scala/collection/IndexedSeqLike$class.lastIndexWhere:(Lscala/collection/IndexedSeqLike;Lscala/Function1;I)I
const #516 = NameAndType	#476:#513;//  indexWhere:(Lscala/collection/IndexedSeqLike;Lscala/Function1;I)I
const #517 = Method	#35.#516;	//  scala/collection/IndexedSeqLike$class.indexWhere:(Lscala/collection/IndexedSeqLike;Lscala/Function1;I)I
const #518 = Asciz	segmentLength;
const #519 = NameAndType	#518:#513;//  segmentLength:(Lscala/collection/IndexedSeqLike;Lscala/Function1;I)I
const #520 = Method	#35.#519;	//  scala/collection/IndexedSeqLike$class.segmentLength:(Lscala/collection/IndexedSeqLike;Lscala/Function1;I)I
const #521 = Asciz	lengthCompare;
const #522 = Asciz	(I)I;
const #523 = Asciz	(Lscala/collection/IndexedSeqLike;I)I;
const #524 = NameAndType	#521:#523;//  lengthCompare:(Lscala/collection/IndexedSeqLike;I)I
const #525 = Method	#35.#524;	//  scala/collection/IndexedSeqLike$class.lengthCompare:(Lscala/collection/IndexedSeqLike;I)I
const #526 = Asciz	(Ljava/lang/Object;II)V;
const #527 = Asciz	(Lscala/collection/IndexedSeqLike;Ljava/lang/Object;II)V;
const #528 = NameAndType	#181:#527;//  copyToArray:(Lscala/collection/IndexedSeqLike;Ljava/lang/Object;II)V
const #529 = Method	#35.#528;	//  scala/collection/IndexedSeqLike$class.copyToArray:(Lscala/collection/IndexedSeqLike;Ljava/lang/Object;II)V
const #530 = Asciz	sameElements;
const #531 = Asciz	(Lscala/collection/Iterable;)Z;
const #532 = Asciz	(Lscala/collection/IndexedSeqLike;Lscala/collection/Iterable;)Z;
const #533 = NameAndType	#530:#532;//  sameElements:(Lscala/collection/IndexedSeqLike;Lscala/collection/Iterable;)Z
const #534 = Method	#35.#533;	//  scala/collection/IndexedSeqLike$class.sameElements:(Lscala/collection/IndexedSeqLike;Lscala/collection/Iterable;)Z
const #535 = Asciz	span;
const #536 = Asciz	(Lscala/collection/IndexedSeqLike;Lscala/Function1;)Lscala/Tuple2;;
const #537 = NameAndType	#535:#536;//  span:(Lscala/collection/IndexedSeqLike;Lscala/Function1;)Lscala/Tuple2;
const #538 = Method	#35.#537;	//  scala/collection/IndexedSeqLike$class.span:(Lscala/collection/IndexedSeqLike;Lscala/Function1;)Lscala/Tuple2;
const #539 = Asciz	dropWhile;
const #540 = Asciz	(Lscala/collection/IndexedSeqLike;Lscala/Function1;)Ljava/lang/Object;;
const #541 = NameAndType	#539:#540;//  dropWhile:(Lscala/collection/IndexedSeqLike;Lscala/Function1;)Ljava/lang/Object;
const #542 = Method	#35.#541;	//  scala/collection/IndexedSeqLike$class.dropWhile:(Lscala/collection/IndexedSeqLike;Lscala/Function1;)Ljava/lang/Object;
const #543 = Asciz	takeWhile;
const #544 = NameAndType	#543:#540;//  takeWhile:(Lscala/collection/IndexedSeqLike;Lscala/Function1;)Ljava/lang/Object;
const #545 = Method	#35.#544;	//  scala/collection/IndexedSeqLike$class.takeWhile:(Lscala/collection/IndexedSeqLike;Lscala/Function1;)Ljava/lang/Object;
const #546 = Asciz	splitAt;
const #547 = Asciz	(I)Lscala/Tuple2;;
const #548 = Asciz	(Lscala/collection/IndexedSeqLike;I)Lscala/Tuple2;;
const #549 = NameAndType	#546:#548;//  splitAt:(Lscala/collection/IndexedSeqLike;I)Lscala/Tuple2;
const #550 = Method	#35.#549;	//  scala/collection/IndexedSeqLike$class.splitAt:(Lscala/collection/IndexedSeqLike;I)Lscala/Tuple2;
const #551 = Asciz	n;
const #552 = Asciz	dropRight;
const #553 = Asciz	(Lscala/collection/IndexedSeqLike;I)Ljava/lang/Object;;
const #554 = NameAndType	#552:#553;//  dropRight:(Lscala/collection/IndexedSeqLike;I)Ljava/lang/Object;
const #555 = Method	#35.#554;	//  scala/collection/IndexedSeqLike$class.dropRight:(Lscala/collection/IndexedSeqLike;I)Ljava/lang/Object;
const #556 = Asciz	takeRight;
const #557 = NameAndType	#556:#553;//  takeRight:(Lscala/collection/IndexedSeqLike;I)Ljava/lang/Object;
const #558 = Method	#35.#557;	//  scala/collection/IndexedSeqLike$class.takeRight:(Lscala/collection/IndexedSeqLike;I)Ljava/lang/Object;
const #559 = Asciz	drop;
const #560 = NameAndType	#559:#553;//  drop:(Lscala/collection/IndexedSeqLike;I)Ljava/lang/Object;
const #561 = Method	#35.#560;	//  scala/collection/IndexedSeqLike$class.drop:(Lscala/collection/IndexedSeqLike;I)Ljava/lang/Object;
const #562 = Asciz	take;
const #563 = NameAndType	#562:#553;//  take:(Lscala/collection/IndexedSeqLike;I)Ljava/lang/Object;
const #564 = Method	#35.#563;	//  scala/collection/IndexedSeqLike$class.take:(Lscala/collection/IndexedSeqLike;I)Ljava/lang/Object;
const #565 = Asciz	init;
const #566 = NameAndType	#565:#493;//  init:(Lscala/collection/IndexedSeqLike;)Ljava/lang/Object;
const #567 = Method	#35.#566;	//  scala/collection/IndexedSeqLike$class.init:(Lscala/collection/IndexedSeqLike;)Ljava/lang/Object;
const #568 = Asciz	last;
const #569 = NameAndType	#568:#493;//  last:(Lscala/collection/IndexedSeqLike;)Ljava/lang/Object;
const #570 = Method	#35.#569;	//  scala/collection/IndexedSeqLike$class.last:(Lscala/collection/IndexedSeqLike;)Ljava/lang/Object;
const #571 = Asciz	tail;
const #572 = NameAndType	#571:#493;//  tail:(Lscala/collection/IndexedSeqLike;)Ljava/lang/Object;
const #573 = Method	#35.#572;	//  scala/collection/IndexedSeqLike$class.tail:(Lscala/collection/IndexedSeqLike;)Ljava/lang/Object;
const #574 = Asciz	head;
const #575 = NameAndType	#574:#493;//  head:(Lscala/collection/IndexedSeqLike;)Ljava/lang/Object;
const #576 = Method	#35.#575;	//  scala/collection/IndexedSeqLike$class.head:(Lscala/collection/IndexedSeqLike;)Ljava/lang/Object;
const #577 = Asciz	slice;
const #578 = Asciz	(II)Ljava/lang/Object;;
const #579 = Asciz	(Lscala/collection/IndexedSeqLike;II)Ljava/lang/Object;;
const #580 = NameAndType	#577:#579;//  slice:(Lscala/collection/IndexedSeqLike;II)Ljava/lang/Object;
const #581 = Method	#35.#580;	//  scala/collection/IndexedSeqLike$class.slice:(Lscala/collection/IndexedSeqLike;II)Ljava/lang/Object;
const #582 = Asciz	zipWithIndex;
const #583 = Asciz	(Lscala/collection/generic/CanBuildFrom;)Ljava/lang/Object;;
const #584 = Asciz	(Lscala/collection/IndexedSeqLike;Lscala/collection/generic/CanBuildFrom;)Ljava/lang/Object;;
const #585 = NameAndType	#582:#584;//  zipWithIndex:(Lscala/collection/IndexedSeqLike;Lscala/collection/generic/CanBuildFrom;)Ljava/lang/Object;
const #586 = Method	#35.#585;	//  scala/collection/IndexedSeqLike$class.zipWithIndex:(Lscala/collection/IndexedSeqLike;Lscala/collection/generic/CanBuildFrom;)Ljava/lang/Object;
const #587 = Asciz	zip;
const #588 = Asciz	(Lscala/collection/Iterable;Lscala/collection/generic/CanBuildFrom;)Ljava/lang/Object;;
const #589 = Asciz	(Lscala/collection/IndexedSeqLike;Lscala/collection/Iterable;Lscala/collection/generic/CanBuildFrom;)Ljava/lang/Object;;
const #590 = NameAndType	#587:#589;//  zip:(Lscala/collection/IndexedSeqLike;Lscala/collection/Iterable;Lscala/collection/generic/CanBuildFrom;)Ljava/lang/Object;
const #591 = Method	#35.#590;	//  scala/collection/IndexedSeqLike$class.zip:(Lscala/collection/IndexedSeqLike;Lscala/collection/Iterable;Lscala/collection/generic/CanBuildFrom;)Ljava/lang/Object;
const #592 = Asciz	reduceRight;
const #593 = Asciz	(Lscala/collection/IndexedSeqLike;Lscala/Function2;)Ljava/lang/Object;;
const #594 = NameAndType	#592:#593;//  reduceRight:(Lscala/collection/IndexedSeqLike;Lscala/Function2;)Ljava/lang/Object;
const #595 = Method	#35.#594;	//  scala/collection/IndexedSeqLike$class.reduceRight:(Lscala/collection/IndexedSeqLike;Lscala/Function2;)Ljava/lang/Object;
const #596 = Asciz	reduceLeft;
const #597 = NameAndType	#596:#593;//  reduceLeft:(Lscala/collection/IndexedSeqLike;Lscala/Function2;)Ljava/lang/Object;
const #598 = Method	#35.#597;	//  scala/collection/IndexedSeqLike$class.reduceLeft:(Lscala/collection/IndexedSeqLike;Lscala/Function2;)Ljava/lang/Object;
const #599 = Asciz	foldRight;
const #600 = Asciz	(Lscala/collection/IndexedSeqLike;Ljava/lang/Object;Lscala/Function2;)Ljava/lang/Object;;
const #601 = NameAndType	#599:#600;//  foldRight:(Lscala/collection/IndexedSeqLike;Ljava/lang/Object;Lscala/Function2;)Ljava/lang/Object;
const #602 = Method	#35.#601;	//  scala/collection/IndexedSeqLike$class.foldRight:(Lscala/collection/IndexedSeqLike;Ljava/lang/Object;Lscala/Function2;)Ljava/lang/Object;
const #603 = Asciz	foldLeft;
const #604 = NameAndType	#603:#600;//  foldLeft:(Lscala/collection/IndexedSeqLike;Ljava/lang/Object;Lscala/Function2;)Ljava/lang/Object;
const #605 = Method	#35.#604;	//  scala/collection/IndexedSeqLike$class.foldLeft:(Lscala/collection/IndexedSeqLike;Ljava/lang/Object;Lscala/Function2;)Ljava/lang/Object;
const #606 = Asciz	find;
const #607 = Asciz	(Lscala/Function1;)Lscala/Option;;
const #608 = Asciz	(Lscala/collection/IndexedSeqLike;Lscala/Function1;)Lscala/Option;;
const #609 = NameAndType	#606:#608;//  find:(Lscala/collection/IndexedSeqLike;Lscala/Function1;)Lscala/Option;
const #610 = Method	#35.#609;	//  scala/collection/IndexedSeqLike$class.find:(Lscala/collection/IndexedSeqLike;Lscala/Function1;)Lscala/Option;
const #611 = Asciz	exists;
const #612 = Asciz	(Lscala/Function1;)Z;
const #613 = Asciz	(Lscala/collection/IndexedSeqLike;Lscala/Function1;)Z;
const #614 = NameAndType	#611:#613;//  exists:(Lscala/collection/IndexedSeqLike;Lscala/Function1;)Z
const #615 = Method	#35.#614;	//  scala/collection/IndexedSeqLike$class.exists:(Lscala/collection/IndexedSeqLike;Lscala/Function1;)Z
const #616 = Asciz	forall;
const #617 = NameAndType	#616:#613;//  forall:(Lscala/collection/IndexedSeqLike;Lscala/Function1;)Z
const #618 = Method	#35.#617;	//  scala/collection/IndexedSeqLike$class.forall:(Lscala/collection/IndexedSeqLike;Lscala/Function1;)Z
const #619 = Asciz	foreach;
const #620 = Asciz	(Lscala/Function1;)V;
const #621 = Asciz	(Lscala/collection/IndexedSeqLike;Lscala/Function1;)V;
const #622 = NameAndType	#619:#621;//  foreach:(Lscala/collection/IndexedSeqLike;Lscala/Function1;)V
const #623 = Method	#35.#622;	//  scala/collection/IndexedSeqLike$class.foreach:(Lscala/collection/IndexedSeqLike;Lscala/Function1;)V
const #624 = Asciz	isEmpty;
const #625 = Asciz	(Lscala/collection/IndexedSeqLike;)Z;
const #626 = NameAndType	#624:#625;//  isEmpty:(Lscala/collection/IndexedSeqLike;)Z
const #627 = Method	#35.#626;	//  scala/collection/IndexedSeqLike$class.isEmpty:(Lscala/collection/IndexedSeqLike;)Z
const #628 = Asciz	iterator;
const #629 = NameAndType	#628:#506;//  iterator:(Lscala/collection/IndexedSeqLike;)Lscala/collection/Iterator;
const #630 = Method	#35.#629;	//  scala/collection/IndexedSeqLike$class.iterator:(Lscala/collection/IndexedSeqLike;)Lscala/collection/Iterator;
const #631 = Asciz	scala$collection$IndexedSeqLike$$super$endsWith;
const #632 = NameAndType	#496:#342;//  endsWith:(Lscala/collection/SeqLike;Lscala/collection/Seq;)Z
const #633 = Method	#30.#632;	//  scala/collection/SeqLike$class.endsWith:(Lscala/collection/SeqLike;Lscala/collection/Seq;)Z
const #634 = Asciz	scala$collection$IndexedSeqLike$$super$sameElements;
const #635 = Asciz	(Lscala/collection/IterableLike;Lscala/collection/Iterable;)Z;
const #636 = NameAndType	#530:#635;//  sameElements:(Lscala/collection/IterableLike;Lscala/collection/Iterable;)Z
const #637 = Method	#25.#636;	//  scala/collection/IterableLike$class.sameElements:(Lscala/collection/IterableLike;Lscala/collection/Iterable;)Z
const #638 = Asciz	scala$collection$IndexedSeqLike$$super$init;
const #639 = Asciz	(Lscala/collection/TraversableLike;)Ljava/lang/Object;;
const #640 = NameAndType	#565:#639;//  init:(Lscala/collection/TraversableLike;)Ljava/lang/Object;
const #641 = Method	#19.#640;	//  scala/collection/TraversableLike$class.init:(Lscala/collection/TraversableLike;)Ljava/lang/Object;
const #642 = Asciz	scala$collection$IndexedSeqLike$$super$last;
const #643 = NameAndType	#568:#639;//  last:(Lscala/collection/TraversableLike;)Ljava/lang/Object;
const #644 = Method	#19.#643;	//  scala/collection/TraversableLike$class.last:(Lscala/collection/TraversableLike;)Ljava/lang/Object;
const #645 = Asciz	scala$collection$IndexedSeqLike$$super$tail;
const #646 = NameAndType	#571:#639;//  tail:(Lscala/collection/TraversableLike;)Ljava/lang/Object;
const #647 = Method	#19.#646;	//  scala/collection/TraversableLike$class.tail:(Lscala/collection/TraversableLike;)Ljava/lang/Object;
const #648 = Asciz	scala$collection$IndexedSeqLike$$super$head;
const #649 = NameAndType	#574:#306;//  head:(Lscala/collection/IterableLike;)Ljava/lang/Object;
const #650 = Method	#25.#649;	//  scala/collection/IterableLike$class.head:(Lscala/collection/IterableLike;)Ljava/lang/Object;
const #651 = Asciz	scala$collection$IndexedSeqLike$$super$zip;
const #652 = Asciz	(Lscala/collection/IterableLike;Lscala/collection/Iterable;Lscala/collection/generic/CanBuildFrom;)Ljava/lang/Object;;
const #653 = NameAndType	#587:#652;//  zip:(Lscala/collection/IterableLike;Lscala/collection/Iterable;Lscala/collection/generic/CanBuildFrom;)Ljava/lang/Object;
const #654 = Method	#25.#653;	//  scala/collection/IterableLike$class.zip:(Lscala/collection/IterableLike;Lscala/collection/Iterable;Lscala/collection/generic/CanBuildFrom;)Ljava/lang/Object;
const #655 = Asciz	scala$collection$IndexedSeqLike$$super$reduceRight;
const #656 = Asciz	(Lscala/collection/IterableLike;Lscala/Function2;)Ljava/lang/Object;;
const #657 = NameAndType	#592:#656;//  reduceRight:(Lscala/collection/IterableLike;Lscala/Function2;)Ljava/lang/Object;
const #658 = Method	#25.#657;	//  scala/collection/IterableLike$class.reduceRight:(Lscala/collection/IterableLike;Lscala/Function2;)Ljava/lang/Object;
const #659 = Asciz	scala$collection$IndexedSeqLike$$super$reduceLeft;
const #660 = Asciz	(Lscala/collection/TraversableLike;Lscala/Function2;)Ljava/lang/Object;;
const #661 = NameAndType	#596:#660;//  reduceLeft:(Lscala/collection/TraversableLike;Lscala/Function2;)Ljava/lang/Object;
const #662 = Method	#19.#661;	//  scala/collection/TraversableLike$class.reduceLeft:(Lscala/collection/TraversableLike;Lscala/Function2;)Ljava/lang/Object;
const #663 = Asciz	compareTo;
const #664 = Asciz	(Lscala/math/Ordered;Ljava/lang/Object;)I;
const #665 = NameAndType	#663:#664;//  compareTo:(Lscala/math/Ordered;Ljava/lang/Object;)I
const #666 = Method	#40.#665;	//  scala/math/Ordered$class.compareTo:(Lscala/math/Ordered;Ljava/lang/Object;)I
const #667 = Asciz	$greater$eq;
const #668 = Asciz	(Lscala/math/Ordered;Ljava/lang/Object;)Z;
const #669 = NameAndType	#667:#668;//  $greater$eq:(Lscala/math/Ordered;Ljava/lang/Object;)Z
const #670 = Method	#40.#669;	//  scala/math/Ordered$class.$greater$eq:(Lscala/math/Ordered;Ljava/lang/Object;)Z
const #671 = Asciz	$less$eq;
const #672 = NameAndType	#671:#668;//  $less$eq:(Lscala/math/Ordered;Ljava/lang/Object;)Z
const #673 = Method	#40.#672;	//  scala/math/Ordered$class.$less$eq:(Lscala/math/Ordered;Ljava/lang/Object;)Z
const #674 = Asciz	$greater;
const #675 = NameAndType	#674:#668;//  $greater:(Lscala/math/Ordered;Ljava/lang/Object;)Z
const #676 = Method	#40.#675;	//  scala/math/Ordered$class.$greater:(Lscala/math/Ordered;Ljava/lang/Object;)Z
const #677 = Asciz	$less;
const #678 = NameAndType	#677:#668;//  $less:(Lscala/math/Ordered;Ljava/lang/Object;)Z
const #679 = Method	#40.#678;	//  scala/math/Ordered$class.$less:(Lscala/math/Ordered;Ljava/lang/Object;)Z
const #680 = Asciz	format;
const #681 = Asciz	(Ljava/util/Locale;Lscala/collection/Seq;)Ljava/lang/String;;
const #682 = Asciz	(Lscala/collection/immutable/StringLike;Ljava/util/Locale;Lscala/collection/Seq;)Ljava/lang/String;;
const #683 = NameAndType	#680:#682;//  format:(Lscala/collection/immutable/StringLike;Ljava/util/Locale;Lscala/collection/Seq;)Ljava/lang/String;
const #684 = Method	#45.#683;	//  scala/collection/immutable/StringLike$class.format:(Lscala/collection/immutable/StringLike;Ljava/util/Locale;Lscala/collection/Seq;)Ljava/lang/String;
const #685 = Asciz	l;
const #686 = Asciz	Ljava/util/Locale;;
const #687 = Asciz	args;
const #688 = Asciz	(Lscala/collection/Seq;)Ljava/lang/String;;
const #689 = Asciz	(Lscala/collection/immutable/StringLike;Lscala/collection/Seq;)Ljava/lang/String;;
const #690 = NameAndType	#680:#689;//  format:(Lscala/collection/immutable/StringLike;Lscala/collection/Seq;)Ljava/lang/String;
const #691 = Method	#45.#690;	//  scala/collection/immutable/StringLike$class.format:(Lscala/collection/immutable/StringLike;Lscala/collection/Seq;)Ljava/lang/String;
const #692 = Asciz	toDouble;
const #693 = Asciz	()D;
const #694 = Asciz	(Lscala/collection/immutable/StringLike;)D;
const #695 = NameAndType	#692:#694;//  toDouble:(Lscala/collection/immutable/StringLike;)D
const #696 = Method	#45.#695;	//  scala/collection/immutable/StringLike$class.toDouble:(Lscala/collection/immutable/StringLike;)D
const #697 = Asciz	toFloat;
const #698 = Asciz	()F;
const #699 = Asciz	(Lscala/collection/immutable/StringLike;)F;
const #700 = NameAndType	#697:#699;//  toFloat:(Lscala/collection/immutable/StringLike;)F
const #701 = Method	#45.#700;	//  scala/collection/immutable/StringLike$class.toFloat:(Lscala/collection/immutable/StringLike;)F
const #702 = Asciz	toLong;
const #703 = Asciz	()J;
const #704 = Asciz	(Lscala/collection/immutable/StringLike;)J;
const #705 = NameAndType	#702:#704;//  toLong:(Lscala/collection/immutable/StringLike;)J
const #706 = Method	#45.#705;	//  scala/collection/immutable/StringLike$class.toLong:(Lscala/collection/immutable/StringLike;)J
const #707 = Asciz	toInt;
const #708 = Asciz	(Lscala/collection/immutable/StringLike;)I;
const #709 = NameAndType	#707:#708;//  toInt:(Lscala/collection/immutable/StringLike;)I
const #710 = Method	#45.#709;	//  scala/collection/immutable/StringLike$class.toInt:(Lscala/collection/immutable/StringLike;)I
const #711 = Asciz	toShort;
const #712 = Asciz	()S;
const #713 = Asciz	(Lscala/collection/immutable/StringLike;)S;
const #714 = NameAndType	#711:#713;//  toShort:(Lscala/collection/immutable/StringLike;)S
const #715 = Method	#45.#714;	//  scala/collection/immutable/StringLike$class.toShort:(Lscala/collection/immutable/StringLike;)S
const #716 = Asciz	toByte;
const #717 = Asciz	()B;
const #718 = Asciz	(Lscala/collection/immutable/StringLike;)B;
const #719 = NameAndType	#716:#718;//  toByte:(Lscala/collection/immutable/StringLike;)B
const #720 = Method	#45.#719;	//  scala/collection/immutable/StringLike$class.toByte:(Lscala/collection/immutable/StringLike;)B
const #721 = Asciz	toBoolean;
const #722 = Asciz	(Lscala/collection/immutable/StringLike;)Z;
const #723 = NameAndType	#721:#722;//  toBoolean:(Lscala/collection/immutable/StringLike;)Z
const #724 = Method	#45.#723;	//  scala/collection/immutable/StringLike$class.toBoolean:(Lscala/collection/immutable/StringLike;)Z
const #725 = Asciz	r;
const #726 = Asciz	()Lscala/util/matching/Regex;;
const #727 = Asciz	(Lscala/collection/immutable/StringLike;)Lscala/util/matching/Regex;;
const #728 = NameAndType	#725:#727;//  r:(Lscala/collection/immutable/StringLike;)Lscala/util/matching/Regex;
const #729 = Method	#45.#728;	//  scala/collection/immutable/StringLike$class.r:(Lscala/collection/immutable/StringLike;)Lscala/util/matching/Regex;
const #730 = Asciz	split;
const #731 = Asciz	([C)[Ljava/lang/String;;
const #732 = Asciz	(Lscala/collection/immutable/StringLike;[C)[Ljava/lang/String;;
const #733 = NameAndType	#730:#732;//  split:(Lscala/collection/immutable/StringLike;[C)[Ljava/lang/String;
const #734 = Method	#45.#733;	//  scala/collection/immutable/StringLike$class.split:(Lscala/collection/immutable/StringLike;[C)[Ljava/lang/String;
const #735 = Asciz	separators;
const #736 = Asciz	[C;
const #737 = Asciz	java/util/regex/PatternSyntaxException;
const #738 = class	#737;	//  java/util/regex/PatternSyntaxException
const #739 = Asciz	Exceptions;
const #740 = Asciz	(C)[Ljava/lang/String;;
const #741 = Asciz	(Lscala/collection/immutable/StringLike;C)[Ljava/lang/String;;
const #742 = NameAndType	#730:#741;//  split:(Lscala/collection/immutable/StringLike;C)[Ljava/lang/String;
const #743 = Method	#45.#742;	//  scala/collection/immutable/StringLike$class.split:(Lscala/collection/immutable/StringLike;C)[Ljava/lang/String;
const #744 = Asciz	separator;
const #745 = Asciz	C;
const #746 = Asciz	stripMargin;
const #747 = Asciz	(Lscala/collection/immutable/StringLike;)Ljava/lang/String;;
const #748 = NameAndType	#746:#747;//  stripMargin:(Lscala/collection/immutable/StringLike;)Ljava/lang/String;
const #749 = Method	#45.#748;	//  scala/collection/immutable/StringLike$class.stripMargin:(Lscala/collection/immutable/StringLike;)Ljava/lang/String;
const #750 = Asciz	(C)Ljava/lang/String;;
const #751 = Asciz	(Lscala/collection/immutable/StringLike;C)Ljava/lang/String;;
const #752 = NameAndType	#746:#751;//  stripMargin:(Lscala/collection/immutable/StringLike;C)Ljava/lang/String;
const #753 = Method	#45.#752;	//  scala/collection/immutable/StringLike$class.stripMargin:(Lscala/collection/immutable/StringLike;C)Ljava/lang/String;
const #754 = Asciz	marginChar;
const #755 = Asciz	stripSuffix;
const #756 = Asciz	(Lscala/collection/immutable/StringLike;Ljava/lang/String;)Ljava/lang/String;;
const #757 = NameAndType	#755:#756;//  stripSuffix:(Lscala/collection/immutable/StringLike;Ljava/lang/String;)Ljava/lang/String;
const #758 = Method	#45.#757;	//  scala/collection/immutable/StringLike$class.stripSuffix:(Lscala/collection/immutable/StringLike;Ljava/lang/String;)Ljava/lang/String;
const #759 = Asciz	suffix;
const #760 = Asciz	stripPrefix;
const #761 = NameAndType	#760:#756;//  stripPrefix:(Lscala/collection/immutable/StringLike;Ljava/lang/String;)Ljava/lang/String;
const #762 = Method	#45.#761;	//  scala/collection/immutable/StringLike$class.stripPrefix:(Lscala/collection/immutable/StringLike;Ljava/lang/String;)Ljava/lang/String;
const #763 = Asciz	prefix;
const #764 = Asciz	capitalize;
const #765 = NameAndType	#764:#747;//  capitalize:(Lscala/collection/immutable/StringLike;)Ljava/lang/String;
const #766 = Method	#45.#765;	//  scala/collection/immutable/StringLike$class.capitalize:(Lscala/collection/immutable/StringLike;)Ljava/lang/String;
const #767 = Asciz	linesIterator;
const #768 = Asciz	(Lscala/collection/immutable/StringLike;)Lscala/collection/Iterator;;
const #769 = NameAndType	#767:#768;//  linesIterator:(Lscala/collection/immutable/StringLike;)Lscala/collection/Iterator;
const #770 = Method	#45.#769;	//  scala/collection/immutable/StringLike$class.linesIterator:(Lscala/collection/immutable/StringLike;)Lscala/collection/Iterator;
const #771 = Asciz	lines;
const #772 = NameAndType	#771:#768;//  lines:(Lscala/collection/immutable/StringLike;)Lscala/collection/Iterator;
const #773 = Method	#45.#772;	//  scala/collection/immutable/StringLike$class.lines:(Lscala/collection/immutable/StringLike;)Lscala/collection/Iterator;
const #774 = Asciz	linesWithSeparators;
const #775 = NameAndType	#774:#768;//  linesWithSeparators:(Lscala/collection/immutable/StringLike;)Lscala/collection/Iterator;
const #776 = Method	#45.#775;	//  scala/collection/immutable/StringLike$class.linesWithSeparators:(Lscala/collection/immutable/StringLike;)Lscala/collection/Iterator;
const #777 = Asciz	stripLineEnd;
const #778 = NameAndType	#777:#747;//  stripLineEnd:(Lscala/collection/immutable/StringLike;)Ljava/lang/String;
const #779 = Method	#45.#778;	//  scala/collection/immutable/StringLike$class.stripLineEnd:(Lscala/collection/immutable/StringLike;)Ljava/lang/String;
const #780 = Asciz	(Lscala/collection/immutable/StringLike;Ljava/lang/String;)I;
const #781 = NameAndType	#95:#780;//  compare:(Lscala/collection/immutable/StringLike;Ljava/lang/String;)I
const #782 = Method	#45.#781;	//  scala/collection/immutable/StringLike$class.compare:(Lscala/collection/immutable/StringLike;Ljava/lang/String;)I
const #783 = Asciz	other;
const #784 = Asciz	$times;
const #785 = Asciz	(I)Ljava/lang/String;;
const #786 = Asciz	(Lscala/collection/immutable/StringLike;I)Ljava/lang/String;;
const #787 = NameAndType	#784:#786;//  $times:(Lscala/collection/immutable/StringLike;I)Ljava/lang/String;
const #788 = Method	#45.#787;	//  scala/collection/immutable/StringLike$class.$times:(Lscala/collection/immutable/StringLike;I)Ljava/lang/String;
const #789 = NameAndType	#150:#747;//  mkString:(Lscala/collection/immutable/StringLike;)Ljava/lang/String;
const #790 = Method	#45.#789;	//  scala/collection/immutable/StringLike$class.mkString:(Lscala/collection/immutable/StringLike;)Ljava/lang/String;
const #791 = Asciz	length;
const #792 = NameAndType	#791:#708;//  length:(Lscala/collection/immutable/StringLike;)I
const #793 = Method	#45.#792;	//  scala/collection/immutable/StringLike$class.length:(Lscala/collection/immutable/StringLike;)I
const #794 = Asciz	(Lscala/collection/immutable/StringLike;I)C;
const #795 = NameAndType	#80:#794;//  apply:(Lscala/collection/immutable/StringLike;I)C
const #796 = Method	#45.#795;	//  scala/collection/immutable/StringLike$class.apply:(Lscala/collection/immutable/StringLike;I)C
const #797 = Asciz	Ljava/lang/Object;Lscala/collection/immutable/StringLike<Ljava/lang/String;>;Lscala/ScalaObject;;
const #798 = Asciz	ScalaSig;
const #799 = Asciz	InnerClasses;
const #800 = Asciz	scala/collection/TraversableLike$WithFilter;
const #801 = class	#800;	//  scala/collection/TraversableLike$WithFilter
const #802 = Asciz	scala/collection/TraversableLike;
const #803 = class	#802;	//  scala/collection/TraversableLike
const #804 = Asciz	WithFilter;
const #805 = Asciz	scala/ScalaObject;
const #806 = class	#805;	//  scala/ScalaObject

{
public scala.collection.immutable.StringOps(java.lang.String);
  Code:
   Stack=2, Locals=2, Args_size=2
   0:	aload_0
   1:	aload_1
   2:	putfield	#12; //Field repr:Ljava/lang/String;
   5:	aload_0
   6:	invokespecial	#17; //Method java/lang/Object."<init>":()V
   9:	aload_0
   10:	invokestatic	#23; //Method scala/collection/TraversableLike$class.$init$:(Lscala/collection/TraversableLike;)V
   13:	aload_0
   14:	invokestatic	#28; //Method scala/collection/IterableLike$class.$init$:(Lscala/collection/IterableLike;)V
   17:	aload_0
   18:	invokestatic	#33; //Method scala/collection/SeqLike$class.$init$:(Lscala/collection/SeqLike;)V
   21:	aload_0
   22:	invokestatic	#38; //Method scala/collection/IndexedSeqLike$class.$init$:(Lscala/collection/IndexedSeqLike;)V
   25:	aload_0
   26:	invokestatic	#43; //Method scala/math/Ordered$class.$init$:(Lscala/math/Ordered;)V
   29:	aload_0
   30:	invokestatic	#48; //Method scala/collection/immutable/StringLike$class.$init$:(Lscala/collection/immutable/StringLike;)V
   33:	return
  LineNumberTable: 
   line 20: 0

  LocalVariableTable: 
   Start  Length  Slot  Name   Signature
   0      34      0    this       Lscala/collection/immutable/StringOps;
   0      34      1    repr       Ljava/lang/String;


public java.lang.Object repr();
  Code:
   Stack=1, Locals=1, Args_size=1
   0:	aload_0
   1:	invokevirtual	#55; //Method repr:()Ljava/lang/String;
   4:	areturn
  LineNumberTable: 
   line 20: 0


public scala.collection.IndexedSeq thisCollection();
  Code:
   Stack=1, Locals=1, Args_size=1
   0:	aload_0
   1:	invokevirtual	#60; //Method thisCollection:()Lscala/collection/immutable/WrappedString;
   4:	areturn
  LineNumberTable: 
   line 20: 0


public scala.collection.Seq thisCollection();
  Code:
   Stack=1, Locals=1, Args_size=1
   0:	aload_0
   1:	invokevirtual	#60; //Method thisCollection:()Lscala/collection/immutable/WrappedString;
   4:	areturn
  LineNumberTable: 
   line 20: 0


public scala.collection.Iterable thisCollection();
  Code:
   Stack=1, Locals=1, Args_size=1
   0:	aload_0
   1:	invokevirtual	#60; //Method thisCollection:()Lscala/collection/immutable/WrappedString;
   4:	areturn
  LineNumberTable: 
   line 20: 0


public scala.collection.Traversable thisCollection();
  Code:
   Stack=1, Locals=1, Args_size=1
   0:	aload_0
   1:	invokevirtual	#60; //Method thisCollection:()Lscala/collection/immutable/WrappedString;
   4:	areturn
  LineNumberTable: 
   line 20: 0


public scala.collection.IndexedSeq toCollection(java.lang.Object);
  Code:
   Stack=2, Locals=2, Args_size=2
   0:	aload_0
   1:	aload_1
   2:	checkcast	#67; //class java/lang/String
   5:	invokevirtual	#70; //Method toCollection:(Ljava/lang/String;)Lscala/collection/immutable/WrappedString;
   8:	areturn
  LineNumberTable: 
   line 20: 0

  LocalVariableTable: 
   Start  Length  Slot  Name   Signature
   0      9      0    this       Lscala/collection/immutable/StringOps;
   0      9      1    repr       Ljava/lang/Object;


public scala.collection.Seq toCollection(java.lang.Object);
  Code:
   Stack=2, Locals=2, Args_size=2
   0:	aload_0
   1:	aload_1
   2:	checkcast	#67; //class java/lang/String
   5:	invokevirtual	#70; //Method toCollection:(Ljava/lang/String;)Lscala/collection/immutable/WrappedString;
   8:	areturn
  LineNumberTable: 
   line 20: 0

  LocalVariableTable: 
   Start  Length  Slot  Name   Signature
   0      9      0    this       Lscala/collection/immutable/StringOps;
   0      9      1    repr       Ljava/lang/Object;


public scala.collection.Iterable toCollection(java.lang.Object);
  Code:
   Stack=2, Locals=2, Args_size=2
   0:	aload_0
   1:	aload_1
   2:	checkcast	#67; //class java/lang/String
   5:	invokevirtual	#70; //Method toCollection:(Ljava/lang/String;)Lscala/collection/immutable/WrappedString;
   8:	areturn
  LineNumberTable: 
   line 20: 0

  LocalVariableTable: 
   Start  Length  Slot  Name   Signature
   0      9      0    this       Lscala/collection/immutable/StringOps;
   0      9      1    repr       Ljava/lang/Object;


public scala.collection.Traversable toCollection(java.lang.Object);
  Code:
   Stack=2, Locals=2, Args_size=2
   0:	aload_0
   1:	aload_1
   2:	checkcast	#67; //class java/lang/String
   5:	invokevirtual	#70; //Method toCollection:(Ljava/lang/String;)Lscala/collection/immutable/WrappedString;
   8:	areturn
  LineNumberTable: 
   line 20: 0

  LocalVariableTable: 
   Start  Length  Slot  Name   Signature
   0      9      0    this       Lscala/collection/immutable/StringOps;
   0      9      1    repr       Ljava/lang/Object;


public scala.collection.mutable.Builder newBuilder();
  Code:
   Stack=1, Locals=1, Args_size=1
   0:	aload_0
   1:	invokevirtual	#79; //Method newBuilder:()Lscala/collection/mutable/StringBuilder;
   4:	areturn
  LineNumberTable: 
   line 20: 0


public java.lang.Object apply(int);
  Code:
   Stack=2, Locals=3, Args_size=2
   0:	aload_0
   1:	iload_1
   2:	invokeinterface	#86,  2; //InterfaceMethod scala/collection/immutable/StringLike.apply:(I)C
   7:	istore_2
   8:	iload_2
   9:	invokestatic	#92; //Method scala/runtime/BoxesRunTime.boxToCharacter:(C)Ljava/lang/Character;
   12:	areturn
  LineNumberTable: 
   line 20: 0

  LocalVariableTable: 
   Start  Length  Slot  Name   Signature
   0      13      0    this       Lscala/collection/immutable/StringOps;
   0      13      1    idx       I


public int compare(java.lang.Object);
  Code:
   Stack=2, Locals=2, Args_size=2
   0:	aload_0
   1:	aload_1
   2:	checkcast	#67; //class java/lang/String
   5:	invokeinterface	#99,  2; //InterfaceMethod scala/collection/immutable/StringLike.compare:(Ljava/lang/String;)I
   10:	ireturn
  LineNumberTable: 
   line 20: 0

  LocalVariableTable: 
   Start  Length  Slot  Name   Signature
   0      11      0    this       Lscala/collection/immutable/StringOps;
   0      11      1    that       Ljava/lang/Object;


public scala.collection.SeqView view(int, int);
  Code:
   Stack=3, Locals=3, Args_size=3
   0:	aload_0
   1:	iload_1
   2:	iload_2
   3:	invokeinterface	#107,  3; //InterfaceMethod scala/collection/IndexedSeqLike.view:(II)Lscala/collection/IndexedSeqView;
   8:	areturn
  LineNumberTable: 
   line 20: 0

  LocalVariableTable: 
   Start  Length  Slot  Name   Signature
   0      9      0    this       Lscala/collection/immutable/StringOps;
   0      9      1    from       I
   0      9      2    until       I


public scala.collection.IterableView view(int, int);
  Code:
   Stack=3, Locals=3, Args_size=3
   0:	aload_0
   1:	iload_1
   2:	iload_2
   3:	invokeinterface	#107,  3; //InterfaceMethod scala/collection/IndexedSeqLike.view:(II)Lscala/collection/IndexedSeqView;
   8:	areturn
  LineNumberTable: 
   line 20: 0

  LocalVariableTable: 
   Start  Length  Slot  Name   Signature
   0      9      0    this       Lscala/collection/immutable/StringOps;
   0      9      1    from       I
   0      9      2    until       I


public scala.collection.TraversableView view(int, int);
  Code:
   Stack=3, Locals=3, Args_size=3
   0:	aload_0
   1:	iload_1
   2:	iload_2
   3:	invokeinterface	#107,  3; //InterfaceMethod scala/collection/IndexedSeqLike.view:(II)Lscala/collection/IndexedSeqView;
   8:	areturn
  LineNumberTable: 
   line 20: 0

  LocalVariableTable: 
   Start  Length  Slot  Name   Signature
   0      9      0    this       Lscala/collection/immutable/StringOps;
   0      9      1    from       I
   0      9      2    until       I


public java.lang.String toString();
  Code:
   Stack=1, Locals=1, Args_size=1
   0:	aload_0
   1:	invokevirtual	#55; //Method repr:()Ljava/lang/String;
   4:	areturn
  LineNumberTable: 
   line 28: 0


public scala.collection.mutable.StringBuilder newBuilder();
  Code:
   Stack=2, Locals=1, Args_size=1
   0:	new	#114; //class scala/collection/mutable/StringBuilder
   3:	dup
   4:	invokespecial	#115; //Method scala/collection/mutable/StringBuilder."<init>":()V
   7:	areturn
  LineNumberTable: 
   line 26: 0


public scala.collection.immutable.WrappedString toCollection(java.lang.String);
  Code:
   Stack=3, Locals=2, Args_size=2
   0:	new	#117; //class scala/collection/immutable/WrappedString
   3:	dup
   4:	aload_1
   5:	invokespecial	#119; //Method scala/collection/immutable/WrappedString."<init>":(Ljava/lang/String;)V
   8:	areturn
  LineNumberTable: 
   line 23: 0

  LocalVariableTable: 
   Start  Length  Slot  Name   Signature
   0      9      0    this       Lscala/collection/immutable/StringOps;
   0      9      1    repr       Ljava/lang/String;


public scala.collection.immutable.WrappedString thisCollection();
  Code:
   Stack=3, Locals=1, Args_size=1
   0:	new	#117; //class scala/collection/immutable/WrappedString
   3:	dup
   4:	aload_0
   5:	invokevirtual	#55; //Method repr:()Ljava/lang/String;
   8:	invokespecial	#119; //Method scala/collection/immutable/WrappedString."<init>":(Ljava/lang/String;)V
   11:	areturn
  LineNumberTable: 
   line 22: 0


public java.lang.String repr();
  Code:
   Stack=1, Locals=1, Args_size=1
   0:	aload_0
   1:	getfield	#12; //Field repr:Ljava/lang/String;
   4:	areturn
  LineNumberTable: 
   line 20: 0


public scala.collection.TraversableLike$WithFilter withFilter(scala.Function1);
  Code:
   Stack=2, Locals=2, Args_size=2
   0:	aload_0
   1:	aload_1
   2:	invokestatic	#124; //Method scala/collection/TraversableLike$class.withFilter:(Lscala/collection/TraversableLike;Lscala/Function1;)Lscala/collection/TraversableLike$WithFilter;
   5:	areturn
  LineNumberTable: 
   line 20: 0

  LocalVariableTable: 
   Start  Length  Slot  Name   Signature
[...]
  Code:
   Stack=3, Locals=3, Args_size=3
   0:	aload_0
   1:	aload_1
   2:	aload_2
   3:	invokestatic	#602; //Method scala/collection/IndexedSeqLike$class.foldRight:(Lscala/collection/IndexedSeqLike;Ljava/lang/Object;Lscala/Function2;)Ljava/lang/Object;
   6:	areturn
  LineNumberTable: 
   line 20: 0

  LocalVariableTable: 
   Start  Length  Slot  Name   Signature
   0      7      0    this       Lscala/collection/immutable/StringOps;
   0      7      1    z       Ljava/lang/Object;
   0      7      2    op       Lscala/Function2;


public java.lang.Object foldLeft(java.lang.Object, scala.Function2);
  Code:
   Stack=3, Locals=3, Args_size=3
   0:	aload_0
   1:	aload_1
   2:	aload_2
   3:	invokestatic	#605; //Method scala/collection/IndexedSeqLike$class.foldLeft:(Lscala/collection/IndexedSeqLike;Ljava/lang/Object;Lscala/Function2;)Ljava/lang/Object;
   6:	areturn
  LineNumberTable: 
   line 20: 0

  LocalVariableTable: 
   Start  Length  Slot  Name   Signature
   0      7      0    this       Lscala/collection/immutable/StringOps;
   0      7      1    z       Ljava/lang/Object;
   0      7      2    op       Lscala/Function2;


public scala.Option find(scala.Function1);
  Code:
   Stack=2, Locals=2, Args_size=2
   0:	aload_0
   1:	aload_1
   2:	invokestatic	#610; //Method scala/collection/IndexedSeqLike$class.find:(Lscala/collection/IndexedSeqLike;Lscala/Function1;)Lscala/Option;
   5:	areturn
  LineNumberTable: 
   line 20: 0

  LocalVariableTable: 
   Start  Length  Slot  Name   Signature
   0      6      0    this       Lscala/collection/immutable/StringOps;
   0      6      1    p       Lscala/Function1;


public boolean exists(scala.Function1);
  Code:
   Stack=2, Locals=2, Args_size=2
   0:	aload_0
   1:	aload_1
   2:	invokestatic	#615; //Method scala/collection/IndexedSeqLike$class.exists:(Lscala/collection/IndexedSeqLike;Lscala/Function1;)Z
   5:	ireturn
  LineNumberTable: 
   line 20: 0

  LocalVariableTable: 
   Start  Length  Slot  Name   Signature
   0      6      0    this       Lscala/collection/immutable/StringOps;
   0      6      1    p       Lscala/Function1;


public boolean forall(scala.Function1);
  Code:
   Stack=2, Locals=2, Args_size=2
   0:	aload_0
   1:	aload_1
   2:	invokestatic	#618; //Method scala/collection/IndexedSeqLike$class.forall:(Lscala/collection/IndexedSeqLike;Lscala/Function1;)Z
   5:	ireturn
  LineNumberTable: 
   line 20: 0

  LocalVariableTable: 
   Start  Length  Slot  Name   Signature
   0      6      0    this       Lscala/collection/immutable/StringOps;
   0      6      1    p       Lscala/Function1;


public void foreach(scala.Function1);
  Code:
   Stack=2, Locals=2, Args_size=2
   0:	aload_0
   1:	aload_1
   2:	invokestatic	#623; //Method scala/collection/IndexedSeqLike$class.foreach:(Lscala/collection/IndexedSeqLike;Lscala/Function1;)V
   5:	return
  LineNumberTable: 
   line 20: 0

  LocalVariableTable: 
   Start  Length  Slot  Name   Signature
   0      6      0    this       Lscala/collection/immutable/StringOps;
   0      6      1    f       Lscala/Function1;


public boolean isEmpty();
  Code:
   Stack=1, Locals=1, Args_size=1
   0:	aload_0
   1:	invokestatic	#627; //Method scala/collection/IndexedSeqLike$class.isEmpty:(Lscala/collection/IndexedSeqLike;)Z
   4:	ireturn
  LineNumberTable: 
   line 20: 0


public scala.collection.Iterator iterator();
  Code:
   Stack=1, Locals=1, Args_size=1
   0:	aload_0
   1:	invokestatic	#630; //Method scala/collection/IndexedSeqLike$class.iterator:(Lscala/collection/IndexedSeqLike;)Lscala/collection/Iterator;
   4:	areturn
  LineNumberTable: 
   line 20: 0


public final boolean scala$collection$IndexedSeqLike$$super$endsWith(scala.collection.Seq);
  Code:
   Stack=2, Locals=2, Args_size=2
   0:	aload_0
   1:	aload_1
   2:	invokestatic	#633; //Method scala/collection/SeqLike$class.endsWith:(Lscala/collection/SeqLike;Lscala/collection/Seq;)Z
   5:	ireturn
  LineNumberTable: 
   line 20: 0

  LocalVariableTable: 
   Start  Length  Slot  Name   Signature
   0      6      0    this       Lscala/collection/immutable/StringOps;
   0      6      1    that       Lscala/collection/Seq;


public final boolean scala$collection$IndexedSeqLike$$super$sameElements(scala.collection.Iterable);
  Code:
   Stack=2, Locals=2, Args_size=2
   0:	aload_0
   1:	aload_1
   2:	invokestatic	#637; //Method scala/collection/IterableLike$class.sameElements:(Lscala/collection/IterableLike;Lscala/collection/Iterable;)Z
   5:	ireturn
  LineNumberTable: 
   line 20: 0

  LocalVariableTable: 
   Start  Length  Slot  Name   Signature
   0      6      0    this       Lscala/collection/immutable/StringOps;
   0      6      1    that       Lscala/collection/Iterable;


public final java.lang.Object scala$collection$IndexedSeqLike$$super$init();
  Code:
   Stack=1, Locals=1, Args_size=1
   0:	aload_0
   1:	invokestatic	#641; //Method scala/collection/TraversableLike$class.init:(Lscala/collection/TraversableLike;)Ljava/lang/Object;
   4:	areturn
  LineNumberTable: 
   line 20: 0


public final java.lang.Object scala$collection$IndexedSeqLike$$super$last();
  Code:
   Stack=1, Locals=1, Args_size=1
   0:	aload_0
   1:	invokestatic	#644; //Method scala/collection/TraversableLike$class.last:(Lscala/collection/TraversableLike;)Ljava/lang/Object;
   4:	areturn
  LineNumberTable: 
   line 20: 0


public final java.lang.Object scala$collection$IndexedSeqLike$$super$tail();
  Code:
   Stack=1, Locals=1, Args_size=1
   0:	aload_0
   1:	invokestatic	#647; //Method scala/collection/TraversableLike$class.tail:(Lscala/collection/TraversableLike;)Ljava/lang/Object;
   4:	areturn
  LineNumberTable: 
   line 20: 0


public final java.lang.Object scala$collection$IndexedSeqLike$$super$head();
  Code:
   Stack=1, Locals=1, Args_size=1
   0:	aload_0
   1:	invokestatic	#650; //Method scala/collection/IterableLike$class.head:(Lscala/collection/IterableLike;)Ljava/lang/Object;
   4:	areturn
  LineNumberTable: 
   line 20: 0


public final java.lang.Object scala$collection$IndexedSeqLike$$super$zip(scala.collection.Iterable, scala.collection.generic.CanBuildFrom);
  Code:
   Stack=3, Locals=3, Args_size=3
   0:	aload_0
   1:	aload_1
   2:	aload_2
   3:	invokestatic	#654; //Method scala/collection/IterableLike$class.zip:(Lscala/collection/IterableLike;Lscala/collection/Iterable;Lscala/collection/generic/CanBuildFrom;)Ljava/lang/Object;
   6:	areturn
  LineNumberTable: 
   line 20: 0

  LocalVariableTable: 
   Start  Length  Slot  Name   Signature
   0      7      0    this       Lscala/collection/immutable/StringOps;
   0      7      1    that       Lscala/collection/Iterable;
   0      7      2    bf       Lscala/collection/generic/CanBuildFrom;


public final java.lang.Object scala$collection$IndexedSeqLike$$super$reduceRight(scala.Function2);
  Code:
   Stack=2, Locals=2, Args_size=2
   0:	aload_0
   1:	aload_1
   2:	invokestatic	#658; //Method scala/collection/IterableLike$class.reduceRight:(Lscala/collection/IterableLike;Lscala/Function2;)Ljava/lang/Object;
   5:	areturn
  LineNumberTable: 
   line 20: 0

  LocalVariableTable: 
   Start  Length  Slot  Name   Signature
   0      6      0    this       Lscala/collection/immutable/StringOps;
   0      6      1    op       Lscala/Function2;


public final java.lang.Object scala$collection$IndexedSeqLike$$super$reduceLeft(scala.Function2);
  Code:
   Stack=2, Locals=2, Args_size=2
   0:	aload_0
   1:	aload_1
   2:	invokestatic	#662; //Method scala/collection/TraversableLike$class.reduceLeft:(Lscala/collection/TraversableLike;Lscala/Function2;)Ljava/lang/Object;
   5:	areturn
  LineNumberTable: 
   line 20: 0

  LocalVariableTable: 
   Start  Length  Slot  Name   Signature
   0      6      0    this       Lscala/collection/immutable/StringOps;
   0      6      1    op       Lscala/Function2;


public int compareTo(java.lang.Object);
  Code:
   Stack=2, Locals=2, Args_size=2
   0:	aload_0
   1:	aload_1
   2:	invokestatic	#666; //Method scala/math/Ordered$class.compareTo:(Lscala/math/Ordered;Ljava/lang/Object;)I
   5:	ireturn
  LineNumberTable: 
   line 20: 0

  LocalVariableTable: 
   Start  Length  Slot  Name   Signature
   0      6      0    this       Lscala/collection/immutable/StringOps;
   0      6      1    that       Ljava/lang/Object;


public boolean $greater$eq(java.lang.Object);
  Code:
   Stack=2, Locals=2, Args_size=2
   0:	aload_0
   1:	aload_1
   2:	invokestatic	#670; //Method scala/math/Ordered$class.$greater$eq:(Lscala/math/Ordered;Ljava/lang/Object;)Z
   5:	ireturn
  LineNumberTable: 
   line 20: 0

  LocalVariableTable: 
   Start  Length  Slot  Name   Signature
   0      6      0    this       Lscala/collection/immutable/StringOps;
   0      6      1    that       Ljava/lang/Object;


public boolean $less$eq(java.lang.Object);
  Code:
   Stack=2, Locals=2, Args_size=2
   0:	aload_0
   1:	aload_1
   2:	invokestatic	#673; //Method scala/math/Ordered$class.$less$eq:(Lscala/math/Ordered;Ljava/lang/Object;)Z
   5:	ireturn
  LineNumberTable: 
   line 20: 0

  LocalVariableTable: 
   Start  Length  Slot  Name   Signature
   0      6      0    this       Lscala/collection/immutable/StringOps;
   0      6      1    that       Ljava/lang/Object;


public boolean $greater(java.lang.Object);
  Code:
   Stack=2, Locals=2, Args_size=2
   0:	aload_0
   1:	aload_1
   2:	invokestatic	#676; //Method scala/math/Ordered$class.$greater:(Lscala/math/Ordered;Ljava/lang/Object;)Z
   5:	ireturn
  LineNumberTable: 
   line 20: 0

  LocalVariableTable: 
   Start  Length  Slot  Name   Signature
   0      6      0    this       Lscala/collection/immutable/StringOps;
   0      6      1    that       Ljava/lang/Object;


public boolean $less(java.lang.Object);
  Code:
   Stack=2, Locals=2, Args_size=2
   0:	aload_0
   1:	aload_1
   2:	invokestatic	#679; //Method scala/math/Ordered$class.$less:(Lscala/math/Ordered;Ljava/lang/Object;)Z
   5:	ireturn
  LineNumberTable: 
   line 20: 0

  LocalVariableTable: 
   Start  Length  Slot  Name   Signature
   0      6      0    this       Lscala/collection/immutable/StringOps;
   0      6      1    that       Ljava/lang/Object;


public java.lang.String format(java.util.Locale, scala.collection.Seq);
  Code:
   Stack=3, Locals=3, Args_size=3
   0:	aload_0
   1:	aload_1
   2:	aload_2
   3:	invokestatic	#684; //Method scala/collection/immutable/StringLike$class.format:(Lscala/collection/immutable/StringLike;Ljava/util/Locale;Lscala/collection/Seq;)Ljava/lang/String;
   6:	areturn
  LineNumberTable: 
   line 20: 0

  LocalVariableTable: 
   Start  Length  Slot  Name   Signature
   0      7      0    this       Lscala/collection/immutable/StringOps;
   0      7      1    l       Ljava/util/Locale;
   0      7      2    args       Lscala/collection/Seq;


public java.lang.String format(scala.collection.Seq);
  Code:
   Stack=2, Locals=2, Args_size=2
   0:	aload_0
   1:	aload_1
   2:	invokestatic	#691; //Method scala/collection/immutable/StringLike$class.format:(Lscala/collection/immutable/StringLike;Lscala/collection/Seq;)Ljava/lang/String;
   5:	areturn
  LineNumberTable: 
   line 20: 0

  LocalVariableTable: 
   Start  Length  Slot  Name   Signature
   0      6      0    this       Lscala/collection/immutable/StringOps;
   0      6      1    args       Lscala/collection/Seq;


public double toDouble();
  Code:
   Stack=2, Locals=1, Args_size=1
   0:	aload_0
   1:	invokestatic	#696; //Method scala/collection/immutable/StringLike$class.toDouble:(Lscala/collection/immutable/StringLike;)D
   4:	dreturn
  LineNumberTable: 
   line 20: 0


public float toFloat();
  Code:
   Stack=1, Locals=1, Args_size=1
   0:	aload_0
   1:	invokestatic	#701; //Method scala/collection/immutable/StringLike$class.toFloat:(Lscala/collection/immutable/StringLike;)F
   4:	freturn
  LineNumberTable: 
   line 20: 0


public long toLong();
  Code:
   Stack=2, Locals=1, Args_size=1
   0:	aload_0
   1:	invokestatic	#706; //Method scala/collection/immutable/StringLike$class.toLong:(Lscala/collection/immutable/StringLike;)J
   4:	lreturn
  LineNumberTable: 
   line 20: 0


public int toInt();
  Code:
   Stack=1, Locals=1, Args_size=1
   0:	aload_0
   1:	invokestatic	#710; //Method scala/collection/immutable/StringLike$class.toInt:(Lscala/collection/immutable/StringLike;)I
   4:	ireturn
  LineNumberTable: 
   line 20: 0


public short toShort();
  Code:
   Stack=1, Locals=1, Args_size=1
   0:	aload_0
   1:	invokestatic	#715; //Method scala/collection/immutable/StringLike$class.toShort:(Lscala/collection/immutable/StringLike;)S
   4:	ireturn
  LineNumberTable: 
   line 20: 0


public byte toByte();
  Code:
   Stack=1, Locals=1, Args_size=1
   0:	aload_0
   1:	invokestatic	#720; //Method scala/collection/immutable/StringLike$class.toByte:(Lscala/collection/immutable/StringLike;)B
   4:	ireturn
  LineNumberTable: 
   line 20: 0


public boolean toBoolean();
  Code:
   Stack=1, Locals=1, Args_size=1
   0:	aload_0
   1:	invokestatic	#724; //Method scala/collection/immutable/StringLike$class.toBoolean:(Lscala/collection/immutable/StringLike;)Z
   4:	ireturn
  LineNumberTable: 
   line 20: 0


public scala.util.matching.Regex r();
  Code:
   Stack=1, Locals=1, Args_size=1
   0:	aload_0
   1:	invokestatic	#729; //Method scala/collection/immutable/StringLike$class.r:(Lscala/collection/immutable/StringLike;)Lscala/util/matching/Regex;
   4:	areturn
  LineNumberTable: 
   line 20: 0


public java.lang.String[] split(char[])   throws java.util.regex.PatternSyntaxException;
  Code:
   Stack=2, Locals=2, Args_size=2
   0:	aload_0
   1:	aload_1
   2:	invokestatic	#734; //Method scala/collection/immutable/StringLike$class.split:(Lscala/collection/immutable/StringLike;[C)[Ljava/lang/String;
   5:	areturn
  LineNumberTable: 
   line 20: 0

  LocalVariableTable: 
   Start  Length  Slot  Name   Signature
   0      6      0    this       Lscala/collection/immutable/StringOps;
   0      6      1    separators       [C

  Exceptions: 
   throws java.util.regex.PatternSyntaxException
public java.lang.String[] split(char)   throws java.util.regex.PatternSyntaxException;
  Code:
   Stack=2, Locals=2, Args_size=2
   0:	aload_0
   1:	iload_1
   2:	invokestatic	#743; //Method scala/collection/immutable/StringLike$class.split:(Lscala/collection/immutable/StringLike;C)[Ljava/lang/String;
   5:	areturn
  LineNumberTable: 
   line 20: 0

  LocalVariableTable: 
   Start  Length  Slot  Name   Signature
   0      6      0    this       Lscala/collection/immutable/StringOps;
   0      6      1    separator       C

  Exceptions: 
   throws java.util.regex.PatternSyntaxException
public java.lang.String stripMargin();
  Code:
   Stack=1, Locals=1, Args_size=1
   0:	aload_0
   1:	invokestatic	#749; //Method scala/collection/immutable/StringLike$class.stripMargin:(Lscala/collection/immutable/StringLike;)Ljava/lang/String;
   4:	areturn
  LineNumberTable: 
   line 20: 0


public java.lang.String stripMargin(char);
  Code:
   Stack=2, Locals=2, Args_size=2
   0:	aload_0
   1:	iload_1
   2:	invokestatic	#753; //Method scala/collection/immutable/StringLike$class.stripMargin:(Lscala/collection/immutable/StringLike;C)Ljava/lang/String;
   5:	areturn
  LineNumberTable: 
   line 20: 0

  LocalVariableTable: 
   Start  Length  Slot  Name   Signature
   0      6      0    this       Lscala/collection/immutable/StringOps;
   0      6      1    marginChar       C


public java.lang.String stripSuffix(java.lang.String);
  Code:
   Stack=2, Locals=2, Args_size=2
   0:	aload_0
   1:	aload_1
   2:	invokestatic	#758; //Method scala/collection/immutable/StringLike$class.stripSuffix:(Lscala/collection/immutable/StringLike;Ljava/lang/String;)Ljava/lang/String;
   5:	areturn
  LineNumberTable: 
   line 20: 0

  LocalVariableTable: 
   Start  Length  Slot  Name   Signature
   0      6      0    this       Lscala/collection/immutable/StringOps;
   0      6      1    suffix       Ljava/lang/String;


public java.lang.String stripPrefix(java.lang.String);
  Code:
   Stack=2, Locals=2, Args_size=2
   0:	aload_0
   1:	aload_1
   2:	invokestatic	#762; //Method scala/collection/immutable/StringLike$class.stripPrefix:(Lscala/collection/immutable/StringLike;Ljava/lang/String;)Ljava/lang/String;
   5:	areturn
  LineNumberTable: 
   line 20: 0

  LocalVariableTable: 
   Start  Length  Slot  Name   Signature
   0      6      0    this       Lscala/collection/immutable/StringOps;
   0      6      1    prefix       Ljava/lang/String;


public java.lang.String capitalize();
  Code:
   Stack=1, Locals=1, Args_size=1
   0:	aload_0
   1:	invokestatic	#766; //Method scala/collection/immutable/StringLike$class.capitalize:(Lscala/collection/immutable/StringLike;)Ljava/lang/String;
   4:	areturn
  LineNumberTable: 
   line 20: 0


public scala.collection.Iterator linesIterator();
  Code:
   Stack=1, Locals=1, Args_size=1
   0:	aload_0
   1:	invokestatic	#770; //Method scala/collection/immutable/StringLike$class.linesIterator:(Lscala/collection/immutable/StringLike;)Lscala/collection/Iterator;
   4:	areturn
  LineNumberTable: 
   line 20: 0


public scala.collection.Iterator lines();
  Code:
   Stack=1, Locals=1, Args_size=1
   0:	aload_0
   1:	invokestatic	#773; //Method scala/collection/immutable/StringLike$class.lines:(Lscala/collection/immutable/StringLike;)Lscala/collection/Iterator;
   4:	areturn
  LineNumberTable: 
   line 20: 0


public scala.collection.Iterator linesWithSeparators();
  Code:
   Stack=1, Locals=1, Args_size=1
   0:	aload_0
   1:	invokestatic	#776; //Method scala/collection/immutable/StringLike$class.linesWithSeparators:(Lscala/collection/immutable/StringLike;)Lscala/collection/Iterator;
   4:	areturn
  LineNumberTable: 
   line 20: 0


public java.lang.String stripLineEnd();
  Code:
   Stack=1, Locals=1, Args_size=1
   0:	aload_0
   1:	invokestatic	#779; //Method scala/collection/immutable/StringLike$class.stripLineEnd:(Lscala/collection/immutable/StringLike;)Ljava/lang/String;
   4:	areturn
  LineNumberTable: 
   line 20: 0


public int compare(java.lang.String);
  Code:
   Stack=2, Locals=2, Args_size=2
   0:	aload_0
   1:	aload_1
   2:	invokestatic	#782; //Method scala/collection/immutable/StringLike$class.compare:(Lscala/collection/immutable/StringLike;Ljava/lang/String;)I
   5:	ireturn
  LineNumberTable: 
   line 20: 0

  LocalVariableTable: 
   Start  Length  Slot  Name   Signature
   0      6      0    this       Lscala/collection/immutable/StringOps;
   0      6      1    other       Ljava/lang/String;


public java.lang.String $times(int);
  Code:
   Stack=2, Locals=2, Args_size=2
   0:	aload_0
   1:	iload_1
   2:	invokestatic	#788; //Method scala/collection/immutable/StringLike$class.$times:(Lscala/collection/immutable/StringLike;I)Ljava/lang/String;
   5:	areturn
  LineNumberTable: 
   line 20: 0

  LocalVariableTable: 
   Start  Length  Slot  Name   Signature
   0      6      0    this       Lscala/collection/immutable/StringOps;
   0      6      1    n       I


public java.lang.String mkString();
  Code:
   Stack=1, Locals=1, Args_size=1
   0:	aload_0
   1:	invokestatic	#790; //Method scala/collection/immutable/StringLike$class.mkString:(Lscala/collection/immutable/StringLike;)Ljava/lang/String;
   4:	areturn
  LineNumberTable: 
   line 20: 0


public int length();
  Code:
   Stack=1, Locals=1, Args_size=1
   0:	aload_0
   1:	invokestatic	#793; //Method scala/collection/immutable/StringLike$class.length:(Lscala/collection/immutable/StringLike;)I
   4:	ireturn
  LineNumberTable: 
   line 20: 0


public char apply(int);
  Code:
   Stack=2, Locals=2, Args_size=2
   0:	aload_0
   1:	iload_1
   2:	invokestatic	#796; //Method scala/collection/immutable/StringLike$class.apply:(Lscala/collection/immutable/StringLike;I)C
   5:	ireturn
  LineNumberTable: 
   line 20: 0

  LocalVariableTable: 
   Start  Length  Slot  Name   Signature
   0      6      0    this       Lscala/collection/immutable/StringOps;
   0      6      1    n       I


}

