Compiled from "StringOps.scala"
public final class scala.collection.immutable.StringOps extends java.lang.Object implements scala.collection.immutable.StringLike
  ScalaSig: length = 0x1E5
   05 00 4B 06 08 01 02 FFFFFF84 FFFFFF80 FFFFFF80 FFFFFF80 02 09 02 09 53
   74 72 69 6E 67 4F 70 73 0A 02 03 04 01 09 69 6D
   6D 75 74 61 62 6C 65 0A 02 05 06 01 0A 63 6F 6C
   6C 65 63 74 69 6F 6E 0A 01 07 01 05 73 63 61 6C
   61 03 00 13 04 00 0A 12 1E 10 02 0B 10 0D 01 0C
   0A 02 0D 0E 01 04 6C 61 6E 67 0A 01 0F 01 04 6A
   61 76 61 09 02 11 0C 02 06 4F 62 6A 65 63 74 10
   03 13 14 16 0D 01 02 09 02 15 02 02 0A 53 74 72
   69 6E 67 4C 69 6B 65 10 02 17 1B 0E 02 18 19 0D
   01 06 09 02 1A 06 01 06 50 72 65 64 65 66 09 02
   1C 1D 02 06 53 74 72 69 6E 67 0A 02 1A 06 10 02
   18 1F 09 02 20 06 02 0B 53 63 61 6C 61 4F 62 6A
   65 63 74 08 08 22 00 FFFFFF82 FFFFFFC2 FFFFFF80 FFFFFF84 20 23 01 04 72
   65 70 72 15 01 16 08 08 25 00 FFFFFF82 FFFFFF80 FFFFFFA0 FFFFFF80 04 16
   01 05 72 65 70 72 20 08 05 27 00 FFFFFF84 00 28 01 06
   3C 69 6E 69 74 3E 14 02 29 2A 10 02 13 00 08 05
   22 26 FFFFFFC0 00 16 08 06 2C 00 FFFFFFA0 FFFFFF84 28 2D 01 0E 74
   68 69 73 43 6F 6C 6C 65 63 74 69 6F 6E 15 01 2E
   10 02 13 2F 09 02 30 02 02 0D 57 72 61 70 70 65
   64 53 74 72 69 6E 67 08 06 32 00 FFFFFFA0 FFFFFF84 28 33 01
   0C 74 6F 43 6F 6C 6C 65 63 74 69 6F 6E 14 02 2E
   34 08 05 22 31 FFFFFFC0 00 16 08 06 36 00 FFFFFFA0 FFFFFF84 28 37
   01 0A 6E 65 77 42 75 69 6C 64 65 72 15 01 38 10
   02 39 3C 0D 01 3A 0A 02 3B 04 01 07 6D 75 74 61
   62 6C 65 09 02 3D 3A 02 0D 53 74 72 69 6E 67 42
   75 69 6C 64 65 72 08 05 3F 00 FFFFFF84 20 40 01 05 73
   6C 69 63 65 14 03 16 41 46 08 05 42 3E FFFFFFC0 00 43
   01 04 66 72 6F 6D 10 02 18 44 09 02 45 06 02 03
   49 6E 74 08 05 47 3E FFFFFFC0 00 43 01 05 75 6E 74 69
   6C 08 05 49 00 FFFFFF84 20 4A 01 08 74 6F 53 74 72 69
   6E 67 14 01 16 
  Signature: length = 0x2
   00 FFFFFFDB 
  SourceFile: "StringOps.scala"
  minor version: 0
  major version: 49
  Constant pool:
class	java/lang/Object
class	java/lang/String
class	scala/Predef$
class	scala/collection/IndexedSeqLike$class
class	scala/collection/IterableLike$class
class	scala/collection/SeqLike$class
class	scala/collection/TraversableLike
class	scala/collection/TraversableLike$class
class	scala/collection/immutable/StringLike
class	scala/collection/immutable/StringLike$class
class	scala/collection/immutable/StringOps
class	scala/collection/immutable/WrappedString
class	scala/collection/mutable/StringBuilder
class	scala/math/Ordered$class
class	scala/runtime/BoxesRunTime
class	scala/runtime/RichInt
Field	scala/Predef$.MODULE$:Lscala/Predef$;
Field	scala/collection/immutable/StringOps.repr:Ljava/lang/String;
Method	java/lang/Object."<init>":()V
Method	java/lang/String.length:()I
Method	java/lang/String.substring:(II)Ljava/lang/String;
Method	scala/Predef$.intWrapper:(I)Lscala/runtime/RichInt;
Method	scala/collection/IndexedSeqLike$class.$init$:(Lscala/collection/IndexedSeqLike;)V
Method	scala/collection/IndexedSeqLike$class.copyToArray:(Lscala/collection/IndexedSeqLike;Ljava/lang/Object;II)V
Method	scala/collection/IndexedSeqLike$class.drop:(Lscala/collection/IndexedSeqLike;I)Ljava/lang/Object;
Method	scala/collection/IndexedSeqLike$class.foldLeft:(Lscala/collection/IndexedSeqLike;Ljava/lang/Object;Lscala/Function2;)Ljava/lang/Object;
Method	scala/collection/IndexedSeqLike$class.forall:(Lscala/collection/IndexedSeqLike;Lscala/Function1;)Z
Method	scala/collection/IndexedSeqLike$class.foreach:(Lscala/collection/IndexedSeqLike;Lscala/Function1;)V
Method	scala/collection/IndexedSeqLike$class.head:(Lscala/collection/IndexedSeqLike;)Ljava/lang/Object;
Method	scala/collection/IndexedSeqLike$class.isEmpty:(Lscala/collection/IndexedSeqLike;)Z
Method	scala/collection/IndexedSeqLike$class.iterator:(Lscala/collection/IndexedSeqLike;)Lscala/collection/Iterator;
Method	scala/collection/IndexedSeqLike$class.sameElements:(Lscala/collection/IndexedSeqLike;Lscala/collection/Iterable;)Z
Method	scala/collection/IndexedSeqLike$class.segmentLength:(Lscala/collection/IndexedSeqLike;Lscala/Function1;I)I
Method	scala/collection/IndexedSeqLike$class.tail:(Lscala/collection/IndexedSeqLike;)Ljava/lang/Object;
Method	scala/collection/IterableLike$class.$init$:(Lscala/collection/IterableLike;)V
Method	scala/collection/IterableLike$class.canEqual:(Lscala/collection/IterableLike;Ljava/lang/Object;)Z
Method	scala/collection/IterableLike$class.head:(Lscala/collection/IterableLike;)Ljava/lang/Object;
Method	scala/collection/IterableLike$class.sameElements:(Lscala/collection/IterableLike;Lscala/collection/Iterable;)Z
Method	scala/collection/IterableLike$class.toIterable:(Lscala/collection/IterableLike;)Lscala/collection/Iterable;
Method	scala/collection/SeqLike$class.$init$:(Lscala/collection/SeqLike;)V
Method	scala/collection/SeqLike$class.equals:(Lscala/collection/SeqLike;Ljava/lang/Object;)Z
Method	scala/collection/SeqLike$class.hashCode:(Lscala/collection/SeqLike;)I
Method	scala/collection/SeqLike$class.prefixLength:(Lscala/collection/SeqLike;Lscala/Function1;)I
Method	scala/collection/SeqLike$class.size:(Lscala/collection/SeqLike;)I
Method	scala/collection/TraversableLike$class.$div$colon:(Lscala/collection/TraversableLike;Ljava/lang/Object;Lscala/Function2;)Ljava/lang/Object;
Method	scala/collection/TraversableLike$class.$init$:(Lscala/collection/TraversableLike;)V
Method	scala/collection/TraversableLike$class.addString:(Lscala/collection/TraversableLike;Lscala/collection/mutable/StringBuilder;Ljava/lang/String;Ljava/lang/String;Ljava/lang/String;)Lscala/collection/mutable/StringBuilder;
Method	scala/collection/TraversableLike$class.copyToArray:(Lscala/collection/TraversableLike;Ljava/lang/Object;I)V
Method	scala/collection/TraversableLike$class.filter:(Lscala/collection/TraversableLike;Lscala/Function1;)Ljava/lang/Object;
Method	scala/collection/TraversableLike$class.map:(Lscala/collection/TraversableLike;Lscala/Function1;Lscala/collection/generic/CanBuildFrom;)Ljava/lang/Object;
Method	scala/collection/TraversableLike$class.mkString:(Lscala/collection/TraversableLike;Ljava/lang/String;Ljava/lang/String;Ljava/lang/String;)Ljava/lang/String;
Method	scala/collection/TraversableLike$class.nonEmpty:(Lscala/collection/TraversableLike;)Z
Method	scala/collection/TraversableLike$class.stringPrefix:(Lscala/collection/TraversableLike;)Ljava/lang/String;
Method	scala/collection/TraversableLike$class.sum:(Lscala/collection/TraversableLike;Lscala/math/Numeric;)Ljava/lang/Object;
Method	scala/collection/TraversableLike$class.tail:(Lscala/collection/TraversableLike;)Ljava/lang/Object;
Method	scala/collection/TraversableLike$class.toArray:(Lscala/collection/TraversableLike;Lscala/reflect/ClassManifest;)Ljava/lang/Object;
Method	scala/collection/TraversableLike$class.toList:(Lscala/collection/TraversableLike;)Lscala/collection/immutable/List;
Method	scala/collection/immutable/StringLike$class.$init$:(Lscala/collection/immutable/StringLike;)V
Method	scala/collection/immutable/StringLike$class.apply:(Lscala/collection/immutable/StringLike;I)C
Method	scala/collection/immutable/StringLike$class.compare:(Lscala/collection/immutable/StringLike;Ljava/lang/String;)I
Method	scala/collection/immutable/StringLike$class.length:(Lscala/collection/immutable/StringLike;)I
Method	scala/collection/immutable/StringLike$class.toInt:(Lscala/collection/immutable/StringLike;)I
Method	scala/collection/immutable/StringOps.newBuilder:()Lscala/collection/mutable/StringBuilder;
Method	scala/collection/immutable/StringOps.repr:()Ljava/lang/String;
Method	scala/collection/immutable/StringOps.slice:(II)Ljava/lang/String;
Method	scala/collection/immutable/StringOps.thisCollection:()Lscala/collection/immutable/WrappedString;
Method	scala/collection/immutable/WrappedString."<init>":(Ljava/lang/String;)V
Method	scala/collection/mutable/StringBuilder."<init>":()V
Method	scala/math/Ordered$class.$init$:(Lscala/math/Ordered;)V
Method	scala/math/Ordered$class.compareTo:(Lscala/math/Ordered;Ljava/lang/Object;)I
Method	scala/runtime/BoxesRunTime.boxToCharacter:(C)Ljava/lang/Character;
Method	scala/runtime/RichInt.max:(I)I
Method	scala/runtime/RichInt.min:(I)I
InterfaceMethod	scala/collection/immutable/StringLike.apply:(I)C
InterfaceMethod	scala/collection/immutable/StringLike.compare:(Ljava/lang/String;)I
NameAndType	$div$colon:(Lscala/collection/TraversableLike;Ljava/lang/Object;Lscala/Function2;)Ljava/lang/Object;
NameAndType	$init$:(Lscala/collection/IndexedSeqLike;)V
NameAndType	$init$:(Lscala/collection/IterableLike;)V
NameAndType	$init$:(Lscala/collection/SeqLike;)V
NameAndType	$init$:(Lscala/collection/TraversableLike;)V
NameAndType	$init$:(Lscala/collection/immutable/StringLike;)V
NameAndType	$init$:(Lscala/math/Ordered;)V
NameAndType	"<init>":()V
NameAndType	"<init>":(Ljava/lang/String;)V
NameAndType	MODULE$:Lscala/Predef$;
NameAndType	addString:(Lscala/collection/TraversableLike;Lscala/collection/mutable/StringBuilder;Ljava/lang/String;Ljava/lang/String;Ljava/lang/String;)Lscala/collection/mutable/StringBuilder;
NameAndType	apply:(I)C
NameAndType	apply:(Lscala/collection/immutable/StringLike;I)C
NameAndType	boxToCharacter:(C)Ljava/lang/Character;
NameAndType	canEqual:(Lscala/collection/IterableLike;Ljava/lang/Object;)Z
NameAndType	compare:(Ljava/lang/String;)I
NameAndType	compare:(Lscala/collection/immutable/StringLike;Ljava/lang/String;)I
NameAndType	compareTo:(Lscala/math/Ordered;Ljava/lang/Object;)I
NameAndType	copyToArray:(Lscala/collection/IndexedSeqLike;Ljava/lang/Object;II)V
NameAndType	copyToArray:(Lscala/collection/TraversableLike;Ljava/lang/Object;I)V
NameAndType	drop:(Lscala/collection/IndexedSeqLike;I)Ljava/lang/Object;
NameAndType	equals:(Lscala/collection/SeqLike;Ljava/lang/Object;)Z
NameAndType	filter:(Lscala/collection/TraversableLike;Lscala/Function1;)Ljava/lang/Object;
NameAndType	foldLeft:(Lscala/collection/IndexedSeqLike;Ljava/lang/Object;Lscala/Function2;)Ljava/lang/Object;
NameAndType	forall:(Lscala/collection/IndexedSeqLike;Lscala/Function1;)Z
NameAndType	foreach:(Lscala/collection/IndexedSeqLike;Lscala/Function1;)V
NameAndType	hashCode:(Lscala/collection/SeqLike;)I
NameAndType	head:(Lscala/collection/IndexedSeqLike;)Ljava/lang/Object;
NameAndType	head:(Lscala/collection/IterableLike;)Ljava/lang/Object;
NameAndType	intWrapper:(I)Lscala/runtime/RichInt;
NameAndType	isEmpty:(Lscala/collection/IndexedSeqLike;)Z
NameAndType	iterator:(Lscala/collection/IndexedSeqLike;)Lscala/collection/Iterator;
NameAndType	length:()I
NameAndType	length:(Lscala/collection/immutable/StringLike;)I
NameAndType	map:(Lscala/collection/TraversableLike;Lscala/Function1;Lscala/collection/generic/CanBuildFrom;)Ljava/lang/Object;
NameAndType	max:(I)I
NameAndType	min:(I)I
NameAndType	mkString:(Lscala/collection/TraversableLike;Ljava/lang/String;Ljava/lang/String;Ljava/lang/String;)Ljava/lang/String;
NameAndType	newBuilder:()Lscala/collection/mutable/StringBuilder;
NameAndType	nonEmpty:(Lscala/collection/TraversableLike;)Z
NameAndType	prefixLength:(Lscala/collection/SeqLike;Lscala/Function1;)I
NameAndType	repr:()Ljava/lang/String;
NameAndType	repr:Ljava/lang/String;
NameAndType	sameElements:(Lscala/collection/IndexedSeqLike;Lscala/collection/Iterable;)Z
NameAndType	sameElements:(Lscala/collection/IterableLike;Lscala/collection/Iterable;)Z
NameAndType	segmentLength:(Lscala/collection/IndexedSeqLike;Lscala/Function1;I)I
NameAndType	size:(Lscala/collection/SeqLike;)I
NameAndType	slice:(II)Ljava/lang/String;
NameAndType	stringPrefix:(Lscala/collection/TraversableLike;)Ljava/lang/String;
NameAndType	substring:(II)Ljava/lang/String;
NameAndType	sum:(Lscala/collection/TraversableLike;Lscala/math/Numeric;)Ljava/lang/Object;
NameAndType	tail:(Lscala/collection/IndexedSeqLike;)Ljava/lang/Object;
NameAndType	tail:(Lscala/collection/TraversableLike;)Ljava/lang/Object;
NameAndType	thisCollection:()Lscala/collection/immutable/WrappedString;
NameAndType	toArray:(Lscala/collection/TraversableLike;Lscala/reflect/ClassManifest;)Ljava/lang/Object;
NameAndType	toInt:(Lscala/collection/immutable/StringLike;)I
NameAndType	toIterable:(Lscala/collection/IterableLike;)Lscala/collection/Iterable;
NameAndType	toList:(Lscala/collection/TraversableLike;)Lscala/collection/immutable/List;
Asciz	$div$colon;
Asciz	$init$;
Asciz	()I;
Asciz	()Ljava/lang/Object;;
Asciz	()Ljava/lang/String;;
Asciz	()Lscala/collection/IndexedSeq;;
Asciz	()Lscala/collection/Iterable;;
Asciz	()Lscala/collection/Iterator;;
Asciz	()Lscala/collection/Seq;;
Asciz	()Lscala/collection/Traversable;;
Asciz	()Lscala/collection/immutable/List;;
Asciz	()Lscala/collection/immutable/WrappedString;;
Asciz	()Lscala/collection/mutable/Builder;;
Asciz	()Lscala/collection/mutable/StringBuilder;;
Asciz	()V;
Asciz	()Z;
Asciz	(C)Ljava/lang/Character;;
Asciz	(I)C;
Asciz	(I)I;
Asciz	(I)Ljava/lang/Object;;
Asciz	(I)Lscala/runtime/RichInt;;
Asciz	(II)Ljava/lang/Object;;
Asciz	(II)Ljava/lang/String;;
Asciz	(Ljava/lang/Object;)I;
Asciz	(Ljava/lang/Object;)Z;
Asciz	(Ljava/lang/Object;I)V;
Asciz	(Ljava/lang/Object;II)V;
Asciz	(Ljava/lang/Object;Lscala/Function2;)Ljava/lang/Object;;
Asciz	(Ljava/lang/String;)I;
Asciz	(Ljava/lang/String;)V;
Asciz	(Ljava/lang/String;Ljava/lang/String;Ljava/lang/String;)Ljava/lang/String;;
Asciz	(Lscala/Function1;)I;
Asciz	(Lscala/Function1;)Ljava/lang/Object;;
Asciz	(Lscala/Function1;)V;
Asciz	(Lscala/Function1;)Z;
Asciz	(Lscala/Function1;I)I;
Asciz	(Lscala/Function1;Lscala/collection/generic/CanBuildFrom;)Ljava/lang/Object;;
Asciz	(Lscala/collection/IndexedSeqLike;)Ljava/lang/Object;;
Asciz	(Lscala/collection/IndexedSeqLike;)Lscala/collection/Iterator;;
Asciz	(Lscala/collection/IndexedSeqLike;)V;
Asciz	(Lscala/collection/IndexedSeqLike;)Z;
Asciz	(Lscala/collection/IndexedSeqLike;I)Ljava/lang/Object;;
Asciz	(Lscala/collection/IndexedSeqLike;Ljava/lang/Object;II)V;
Asciz	(Lscala/collection/IndexedSeqLike;Ljava/lang/Object;Lscala/Function2;)Ljava/lang/Object;;
Asciz	(Lscala/collection/IndexedSeqLike;Lscala/Function1;)V;
Asciz	(Lscala/collection/IndexedSeqLike;Lscala/Function1;)Z;
Asciz	(Lscala/collection/IndexedSeqLike;Lscala/Function1;I)I;
Asciz	(Lscala/collection/IndexedSeqLike;Lscala/collection/Iterable;)Z;
Asciz	(Lscala/collection/Iterable;)Z;
Asciz	(Lscala/collection/IterableLike;)Ljava/lang/Object;;
Asciz	(Lscala/collection/IterableLike;)Lscala/collection/Iterable;;
Asciz	(Lscala/collection/IterableLike;)V;
Asciz	(Lscala/collection/IterableLike;Ljava/lang/Object;)Z;
Asciz	(Lscala/collection/IterableLike;Lscala/collection/Iterable;)Z;
Asciz	(Lscala/collection/SeqLike;)I;
Asciz	(Lscala/collection/SeqLike;)V;
Asciz	(Lscala/collection/SeqLike;Ljava/lang/Object;)Z;
Asciz	(Lscala/collection/SeqLike;Lscala/Function1;)I;
Asciz	(Lscala/collection/TraversableLike;)Ljava/lang/Object;;
Asciz	(Lscala/collection/TraversableLike;)Ljava/lang/String;;
Asciz	(Lscala/collection/TraversableLike;)Lscala/collection/immutable/List;;
Asciz	(Lscala/collection/TraversableLike;)V;
Asciz	(Lscala/collection/TraversableLike;)Z;
Asciz	(Lscala/collection/TraversableLike;Ljava/lang/Object;I)V;
Asciz	(Lscala/collection/TraversableLike;Ljava/lang/Object;Lscala/Function2;)Ljava/lang/Object;;
Asciz	(Lscala/collection/TraversableLike;Ljava/lang/String;Ljava/lang/String;Ljava/lang/String;)Ljava/lang/String;;
Asciz	(Lscala/collection/TraversableLike;Lscala/Function1;)Ljava/lang/Object;;
Asciz	(Lscala/collection/TraversableLike;Lscala/Function1;Lscala/collection/generic/CanBuildFrom;)Ljava/lang/Object;;
Asciz	(Lscala/collection/TraversableLike;Lscala/collection/mutable/StringBuilder;Ljava/lang/String;Ljava/lang/String;Ljava/lang/String;)Lscala/collection/mutable/StringBuilder;;
Asciz	(Lscala/collection/TraversableLike;Lscala/math/Numeric;)Ljava/lang/Object;;
Asciz	(Lscala/collection/TraversableLike;Lscala/reflect/ClassManifest;)Ljava/lang/Object;;
Asciz	(Lscala/collection/immutable/StringLike;)I;
Asciz	(Lscala/collection/immutable/StringLike;)V;
Asciz	(Lscala/collection/immutable/StringLike;I)C;
Asciz	(Lscala/collection/immutable/StringLike;Ljava/lang/String;)I;
Asciz	(Lscala/collection/mutable/StringBuilder;Ljava/lang/String;Ljava/lang/String;Ljava/lang/String;)Lscala/collection/mutable/StringBuilder;;
Asciz	(Lscala/math/Numeric;)Ljava/lang/Object;;
Asciz	(Lscala/math/Ordered;)V;
Asciz	(Lscala/math/Ordered;Ljava/lang/Object;)I;
Asciz	(Lscala/reflect/ClassManifest;)Ljava/lang/Object;;
Asciz	<init>;
Asciz	Code;
Asciz	I;
Asciz	LineNumberTable;
Asciz	Ljava/lang/Object;;
Asciz	Ljava/lang/Object;Lscala/collection/immutable/StringLike<Ljava/lang/String;>;;
Asciz	Ljava/lang/String;;
Asciz	LocalVariableTable;
Asciz	Lscala/Function1;;
Asciz	Lscala/Function2;;
Asciz	Lscala/Predef$;;
Asciz	Lscala/collection/Iterable;;
Asciz	Lscala/collection/generic/CanBuildFrom;;
Asciz	Lscala/collection/immutable/StringOps;;
Asciz	Lscala/collection/mutable/StringBuilder;;
Asciz	Lscala/math/Numeric;;
Asciz	Lscala/reflect/ClassManifest;;
Asciz	MODULE$;
Asciz	ScalaSig;
Asciz	Signature;
Asciz	SourceFile;
Asciz	StringOps.scala;
Asciz	addString;
Asciz	apply;
Asciz	b;
Asciz	bf;
Asciz	boxToCharacter;
Asciz	canEqual;
Asciz	compare;
Asciz	compareTo;
Asciz	copyToArray;
Asciz	drop;
Asciz	end;
Asciz	equals;
Asciz	evidence$1;
Asciz	f;
Asciz	filter;
Asciz	foldLeft;
Asciz	forall;
Asciz	foreach;
Asciz	from;
Asciz	hashCode;
Asciz	head;
Asciz	idx;
Asciz	intWrapper;
Asciz	isEmpty;
Asciz	iterator;
Asciz	java/lang/Object;
Asciz	java/lang/String;
Asciz	len;
Asciz	length;
Asciz	map;
Asciz	max;
Asciz	min;
Asciz	mkString;
Asciz	n;
Asciz	newBuilder;
Asciz	nonEmpty;
Asciz	num;
Asciz	op;
Asciz	other;
Asciz	p;
Asciz	prefixLength;
Asciz	repr;
Asciz	sameElements;
Asciz	scala$collection$IndexedSeqLike$$super$head;
Asciz	scala$collection$IndexedSeqLike$$super$sameElements;
Asciz	scala$collection$IndexedSeqLike$$super$tail;
Asciz	scala/Predef$;
Asciz	scala/collection/IndexedSeqLike$class;
Asciz	scala/collection/IterableLike$class;
Asciz	scala/collection/SeqLike$class;
Asciz	scala/collection/TraversableLike;
Asciz	scala/collection/TraversableLike$class;
Asciz	scala/collection/immutable/StringLike;
Asciz	scala/collection/immutable/StringLike$class;
Asciz	scala/collection/immutable/StringOps;
Asciz	scala/collection/immutable/WrappedString;
Asciz	scala/collection/mutable/StringBuilder;
Asciz	scala/math/Ordered$class;
Asciz	scala/runtime/BoxesRunTime;
Asciz	scala/runtime/RichInt;
Asciz	segmentLength;
Asciz	sep;
Asciz	size;
Asciz	slice;
Asciz	start;
Asciz	stringPrefix;
Asciz	substring;
Asciz	sum;
Asciz	tail;
Asciz	that;
Asciz	this;
Asciz	thisCollection;
Asciz	toArray;
Asciz	toInt;
Asciz	toIterable;
Asciz	toList;
Asciz	toString;
Asciz	until;
Asciz	xs;
Asciz	z;

{
public final java.lang.String repr;
  Signature: Ljava/lang/String;

public scala.collection.immutable.StringOps(java.lang.String);
  Signature: (Ljava/lang/String;)V
  Code:
   Stack=2, Locals=2, Args_size=2
	aload_0
	aload_1
	putfield	Field repr:Ljava/lang/String;
	aload_0
	invokespecial	Method java/lang/Object."<init>":()V
	aload_0
	invokestatic	Method scala/collection/TraversableLike$class.$init$:(Lscala/collection/TraversableLike;)V
	aload_0
	invokestatic	Method scala/collection/IterableLike$class.$init$:(Lscala/collection/IterableLike;)V
	aload_0
	invokestatic	Method scala/collection/SeqLike$class.$init$:(Lscala/collection/SeqLike;)V
	aload_0
	invokestatic	Method scala/collection/IndexedSeqLike$class.$init$:(Lscala/collection/IndexedSeqLike;)V
	aload_0
	invokestatic	Method scala/math/Ordered$class.$init$:(Lscala/math/Ordered;)V
	aload_0
	invokestatic	Method scala/collection/immutable/StringLike$class.$init$:(Lscala/collection/immutable/StringLike;)V
	return
  Labels:
  LocalVariableTable: 
   Start  Length  Slot  Name   Signature
   0      34      0    this       Lscala/collection/immutable/StringOps;
   0      34      1    repr       Ljava/lang/String;


public java.lang.Object repr();
  Signature: ()Ljava/lang/Object;
  Code:
   Stack=1, Locals=1, Args_size=1
	aload_0
	invokevirtual	Method repr:()Ljava/lang/String;
	areturn
  Labels:

public scala.collection.IndexedSeq thisCollection();
  Signature: ()Lscala/collection/IndexedSeq;
  Code:
   Stack=1, Locals=1, Args_size=1
	aload_0
	invokevirtual	Method thisCollection:()Lscala/collection/immutable/WrappedString;
	areturn
  Labels:

public scala.collection.Seq thisCollection();
  Signature: ()Lscala/collection/Seq;
  Code:
   Stack=1, Locals=1, Args_size=1
	aload_0
	invokevirtual	Method thisCollection:()Lscala/collection/immutable/WrappedString;
	areturn
  Labels:

public scala.collection.Iterable thisCollection();
  Signature: ()Lscala/collection/Iterable;
  Code:
   Stack=1, Locals=1, Args_size=1
	aload_0
	invokevirtual	Method thisCollection:()Lscala/collection/immutable/WrappedString;
	areturn
  Labels:

public scala.collection.Traversable thisCollection();
  Signature: ()Lscala/collection/Traversable;
  Code:
   Stack=1, Locals=1, Args_size=1
	aload_0
	invokevirtual	Method thisCollection:()Lscala/collection/immutable/WrappedString;
	areturn
  Labels:

public scala.collection.mutable.Builder newBuilder();
  Signature: ()Lscala/collection/mutable/Builder;
  Code:
   Stack=1, Locals=1, Args_size=1
	aload_0
	invokevirtual	Method newBuilder:()Lscala/collection/mutable/StringBuilder;
	areturn
  Labels:

public java.lang.Object slice(int, int);
  Signature: (II)Ljava/lang/Object;
  Code:
   Stack=3, Locals=3, Args_size=3
	aload_0
	iload_1
	iload_2
	invokevirtual	Method slice:(II)Ljava/lang/String;
	areturn
  Labels:
  LocalVariableTable: 
   Start  Length  Slot  Name   Signature
   0      7      0    this       Lscala/collection/immutable/StringOps;
   0      7      1    from       I
   0      7      2    until       I


public java.lang.Object apply(int);
  Signature: (I)Ljava/lang/Object;
  Code:
   Stack=2, Locals=3, Args_size=2
	aload_0
	iload_1
	invokeinterface	InterfaceMethod scala/collection/immutable/StringLike.apply:(I)C
	istore_2
	iload_2
	invokestatic	Method scala/runtime/BoxesRunTime.boxToCharacter:(C)Ljava/lang/Character;
	areturn
  Labels:
  LocalVariableTable: 
   Start  Length  Slot  Name   Signature
   0      13      0    this       Lscala/collection/immutable/StringOps;
   0      13      1    idx       I


public int compare(java.lang.Object);
  Signature: (Ljava/lang/Object;)I
  Code:
   Stack=2, Locals=2, Args_size=2
	aload_0
	aload_1
	checkcast	class java/lang/String
	invokeinterface	InterfaceMethod scala/collection/immutable/StringLike.compare:(Ljava/lang/String;)I
	ireturn
  Labels:
  LocalVariableTable: 
   Start  Length  Slot  Name   Signature
   0      11      0    this       Lscala/collection/immutable/StringOps;
   0      11      1    that       Ljava/lang/Object;


public java.lang.String toString();
  Signature: ()Ljava/lang/String;
  Code:
   Stack=1, Locals=1, Args_size=1
	aload_0
	invokevirtual	Method repr:()Ljava/lang/String;
	areturn
  Labels:

public java.lang.String slice(int, int);
  Signature: (II)Ljava/lang/String;
  Code:
   Stack=4, Locals=3, Args_size=3
	aload_0
	invokevirtual	Method repr:()Ljava/lang/String;
	getstatic	Field scala/Predef$.MODULE$:Lscala/Predef$;
	iload_1
	invokevirtual	Method scala/Predef$.intWrapper:(I)Lscala/runtime/RichInt;
	iconst_0
	invokevirtual	Method scala/runtime/RichInt.max:(I)I
	getstatic	Field scala/Predef$.MODULE$:Lscala/Predef$;
	iload_2
	invokevirtual	Method scala/Predef$.intWrapper:(I)Lscala/runtime/RichInt;
	aload_0
	invokevirtual	Method repr:()Ljava/lang/String;
	invokevirtual	Method java/lang/String.length:()I
	invokevirtual	Method scala/runtime/RichInt.min:(I)I
	invokevirtual	Method java/lang/String.substring:(II)Ljava/lang/String;
	areturn
  Labels:
  LocalVariableTable: 
   Start  Length  Slot  Name   Signature
   0      36      0    this       Lscala/collection/immutable/StringOps;
   0      36      1    from       I
   0      36      2    until       I


public scala.collection.mutable.StringBuilder newBuilder();
  Signature: ()Lscala/collection/mutable/StringBuilder;
  Code:
   Stack=2, Locals=1, Args_size=1
	new	class scala/collection/mutable/StringBuilder
	dup
	invokespecial	Method scala/collection/mutable/StringBuilder."<init>":()V
	areturn
  Labels:

public scala.collection.immutable.WrappedString thisCollection();
  Signature: ()Lscala/collection/immutable/WrappedString;
  Code:
   Stack=3, Locals=1, Args_size=1
	new	class scala/collection/immutable/WrappedString
	dup
	aload_0
	invokevirtual	Method repr:()Ljava/lang/String;
	invokespecial	Method scala/collection/immutable/WrappedString."<init>":(Ljava/lang/String;)V
	areturn
  Labels:

public java.lang.String repr();
  Signature: ()Ljava/lang/String;
  Code:
   Stack=1, Locals=1, Args_size=1
	aload_0
	getfield	Field repr:Ljava/lang/String;
	areturn
  Labels:

public java.lang.String stringPrefix();
  Signature: ()Ljava/lang/String;
  Code:
   Stack=1, Locals=1, Args_size=1
	aload_0
	invokestatic	Method scala/collection/TraversableLike$class.stringPrefix:(Lscala/collection/TraversableLike;)Ljava/lang/String;
	areturn
  Labels:

public scala.collection.mutable.StringBuilder addString(scala.collection.mutable.StringBuilder, java.lang.String, java.lang.String, java.lang.String);
  Signature: (Lscala/collection/mutable/StringBuilder;Ljava/lang/String;Ljava/lang/String;Ljava/lang/String;)Lscala/collection/mutable/StringBuilder;
  Code:
   Stack=5, Locals=5, Args_size=5
	aload_0
	aload_1
	aload_2
	aload_3
	aload	4
	invokestatic	Method scala/collection/TraversableLike$class.addString:(Lscala/collection/TraversableLike;Lscala/collection/mutable/StringBuilder;Ljava/lang/String;Ljava/lang/String;Ljava/lang/String;)Lscala/collection/mutable/StringBuilder;
	areturn
  Labels:
  LocalVariableTable: 
   Start  Length  Slot  Name   Signature
   0      10      0    this       Lscala/collection/immutable/StringOps;
   0      10      1    b       Lscala/collection/mutable/StringBuilder;
   0      10      2    start       Ljava/lang/String;
   0      10      3    sep       Ljava/lang/String;
   0      10      4    end       Ljava/lang/String;


public java.lang.String mkString(java.lang.String, java.lang.String, java.lang.String);
  Signature: (Ljava/lang/String;Ljava/lang/String;Ljava/lang/String;)Ljava/lang/String;
  Code:
   Stack=4, Locals=4, Args_size=4
	aload_0
	aload_1
	aload_2
	aload_3
	invokestatic	Method scala/collection/TraversableLike$class.mkString:(Lscala/collection/TraversableLike;Ljava/lang/String;Ljava/lang/String;Ljava/lang/String;)Ljava/lang/String;
	areturn
  Labels:
  LocalVariableTable: 
   Start  Length  Slot  Name   Signature
   0      8      0    this       Lscala/collection/immutable/StringOps;
   0      8      1    start       Ljava/lang/String;
   0      8      2    sep       Ljava/lang/String;
   0      8      3    end       Ljava/lang/String;


public scala.collection.immutable.List toList();
  Signature: ()Lscala/collection/immutable/List;
  Code:
   Stack=1, Locals=1, Args_size=1
	aload_0
	invokestatic	Method scala/collection/TraversableLike$class.toList:(Lscala/collection/TraversableLike;)Lscala/collection/immutable/List;
	areturn
  Labels:

public java.lang.Object toArray(scala.reflect.ClassManifest);
  Signature: (Lscala/reflect/ClassManifest;)Ljava/lang/Object;
  Code:
   Stack=2, Locals=2, Args_size=2
	aload_0
	aload_1
	invokestatic	Method scala/collection/TraversableLike$class.toArray:(Lscala/collection/TraversableLike;Lscala/reflect/ClassManifest;)Ljava/lang/Object;
	areturn
  Labels:
  LocalVariableTable: 
   Start  Length  Slot  Name   Signature
   0      6      0    this       Lscala/collection/immutable/StringOps;
   0      6      1    evidence$1       Lscala/reflect/ClassManifest;


public void copyToArray(java.lang.Object, int);
  Signature: (Ljava/lang/Object;I)V
  Code:
   Stack=3, Locals=3, Args_size=3
	aload_0
	aload_1
	iload_2
	invokestatic	Method scala/collection/TraversableLike$class.copyToArray:(Lscala/collection/TraversableLike;Ljava/lang/Object;I)V
	return
  Labels:
  LocalVariableTable: 
   Start  Length  Slot  Name   Signature
   0      7      0    this       Lscala/collection/immutable/StringOps;
   0      7      1    xs       Ljava/lang/Object;
   0      7      2    start       I


public java.lang.Object sum(scala.math.Numeric);
  Signature: (Lscala/math/Numeric;)Ljava/lang/Object;
  Code:
   Stack=2, Locals=2, Args_size=2
	aload_0
	aload_1
	invokestatic	Method scala/collection/TraversableLike$class.sum:(Lscala/collection/TraversableLike;Lscala/math/Numeric;)Ljava/lang/Object;
	areturn
  Labels:
  LocalVariableTable: 
   Start  Length  Slot  Name   Signature
   0      6      0    this       Lscala/collection/immutable/StringOps;
   0      6      1    num       Lscala/math/Numeric;


public java.lang.Object $div$colon(java.lang.Object, scala.Function2);
  Signature: (Ljava/lang/Object;Lscala/Function2;)Ljava/lang/Object;
  Code:
   Stack=3, Locals=3, Args_size=3
	aload_0
	aload_1
	aload_2
	invokestatic	Method scala/collection/TraversableLike$class.$div$colon:(Lscala/collection/TraversableLike;Ljava/lang/Object;Lscala/Function2;)Ljava/lang/Object;
	areturn
  Labels:
  LocalVariableTable: 
   Start  Length  Slot  Name   Signature
   0      7      0    this       Lscala/collection/immutable/StringOps;
   0      7      1    z       Ljava/lang/Object;
   0      7      2    op       Lscala/Function2;


public java.lang.Object filter(scala.Function1);
  Signature: (Lscala/Function1;)Ljava/lang/Object;
  Code:
   Stack=2, Locals=2, Args_size=2
	aload_0
	aload_1
	invokestatic	Method scala/collection/TraversableLike$class.filter:(Lscala/collection/TraversableLike;Lscala/Function1;)Ljava/lang/Object;
	areturn
  Labels:
  LocalVariableTable: 
   Start  Length  Slot  Name   Signature
   0      6      0    this       Lscala/collection/immutable/StringOps;
   0      6      1    p       Lscala/Function1;


public java.lang.Object map(scala.Function1, scala.collection.generic.CanBuildFrom);
  Signature: (Lscala/Function1;Lscala/collection/generic/CanBuildFrom;)Ljava/lang/Object;
  Code:
   Stack=3, Locals=3, Args_size=3
	aload_0
	aload_1
	aload_2
	invokestatic	Method scala/collection/TraversableLike$class.map:(Lscala/collection/TraversableLike;Lscala/Function1;Lscala/collection/generic/CanBuildFrom;)Ljava/lang/Object;
	areturn
  Labels:
  LocalVariableTable: 
   Start  Length  Slot  Name   Signature
   0      7      0    this       Lscala/collection/immutable/StringOps;
   0      7      1    f       Lscala/Function1;
   0      7      2    bf       Lscala/collection/generic/CanBuildFrom;


public boolean nonEmpty();
  Signature: ()Z
  Code:
   Stack=1, Locals=1, Args_size=1
	aload_0
	invokestatic	Method scala/collection/TraversableLike$class.nonEmpty:(Lscala/collection/TraversableLike;)Z
	ireturn
  Labels:

public boolean canEqual(java.lang.Object);
  Signature: (Ljava/lang/Object;)Z
  Code:
   Stack=2, Locals=2, Args_size=2
	aload_0
	aload_1
	invokestatic	Method scala/collection/IterableLike$class.canEqual:(Lscala/collection/IterableLike;Ljava/lang/Object;)Z
	ireturn
  Labels:
  LocalVariableTable: 
   Start  Length  Slot  Name   Signature
   0      6      0    this       Lscala/collection/immutable/StringOps;
   0      6      1    that       Ljava/lang/Object;


public scala.collection.Iterable toIterable();
  Signature: ()Lscala/collection/Iterable;
  Code:
   Stack=1, Locals=1, Args_size=1
	aload_0
	invokestatic	Method scala/collection/IterableLike$class.toIterable:(Lscala/collection/IterableLike;)Lscala/collection/Iterable;
	areturn
  Labels:

public boolean equals(java.lang.Object);
  Signature: (Ljava/lang/Object;)Z
  Code:
   Stack=2, Locals=2, Args_size=2
	aload_0
	aload_1
	invokestatic	Method scala/collection/SeqLike$class.equals:(Lscala/collection/SeqLike;Ljava/lang/Object;)Z
	ireturn
  Labels:
  LocalVariableTable: 
   Start  Length  Slot  Name   Signature
   0      6      0    this       Lscala/collection/immutable/StringOps;
   0      6      1    that       Ljava/lang/Object;


public int hashCode();
  Signature: ()I
  Code:
   Stack=1, Locals=1, Args_size=1
	aload_0
	invokestatic	Method scala/collection/SeqLike$class.hashCode:(Lscala/collection/SeqLike;)I
	ireturn
  Labels:

public int prefixLength(scala.Function1);
  Signature: (Lscala/Function1;)I
  Code:
   Stack=2, Locals=2, Args_size=2
	aload_0
	aload_1
	invokestatic	Method scala/collection/SeqLike$class.prefixLength:(Lscala/collection/SeqLike;Lscala/Function1;)I
	ireturn
  Labels:
  LocalVariableTable: 
   Start  Length  Slot  Name   Signature
   0      6      0    this       Lscala/collection/immutable/StringOps;
   0      6      1    p       Lscala/Function1;


public int size();
  Signature: ()I
  Code:
   Stack=1, Locals=1, Args_size=1
	aload_0
	invokestatic	Method scala/collection/SeqLike$class.size:(Lscala/collection/SeqLike;)I
	ireturn
  Labels:

public int segmentLength(scala.Function1, int);
  Signature: (Lscala/Function1;I)I
  Code:
   Stack=3, Locals=3, Args_size=3
	aload_0
	aload_1
	iload_2
	invokestatic	Method scala/collection/IndexedSeqLike$class.segmentLength:(Lscala/collection/IndexedSeqLike;Lscala/Function1;I)I
	ireturn
  Labels:
  LocalVariableTable: 
   Start  Length  Slot  Name   Signature
   0      7      0    this       Lscala/collection/immutable/StringOps;
   0      7      1    p       Lscala/Function1;
   0      7      2    from       I


public void copyToArray(java.lang.Object, int, int);
  Signature: (Ljava/lang/Object;II)V
  Code:
   Stack=4, Locals=4, Args_size=4
	aload_0
	aload_1
	iload_2
	iload_3
	invokestatic	Method scala/collection/IndexedSeqLike$class.copyToArray:(Lscala/collection/IndexedSeqLike;Ljava/lang/Object;II)V
	return
  Labels:
  LocalVariableTable: 
   Start  Length  Slot  Name   Signature
   0      8      0    this       Lscala/collection/immutable/StringOps;
   0      8      1    xs       Ljava/lang/Object;
   0      8      2    start       I
   0      8      3    len       I


public boolean sameElements(scala.collection.Iterable);
  Signature: (Lscala/collection/Iterable;)Z
  Code:
   Stack=2, Locals=2, Args_size=2
	aload_0
	aload_1
	invokestatic	Method scala/collection/IndexedSeqLike$class.sameElements:(Lscala/collection/IndexedSeqLike;Lscala/collection/Iterable;)Z
	ireturn
  Labels:
  LocalVariableTable: 
   Start  Length  Slot  Name   Signature
   0      6      0    this       Lscala/collection/immutable/StringOps;
   0      6      1    that       Lscala/collection/Iterable;


public java.lang.Object drop(int);
  Signature: (I)Ljava/lang/Object;
  Code:
   Stack=2, Locals=2, Args_size=2
	aload_0
	iload_1
	invokestatic	Method scala/collection/IndexedSeqLike$class.drop:(Lscala/collection/IndexedSeqLike;I)Ljava/lang/Object;
	areturn
  Labels:
  LocalVariableTable: 
   Start  Length  Slot  Name   Signature
   0      6      0    this       Lscala/collection/immutable/StringOps;
   0      6      1    n       I


public java.lang.Object tail();
  Signature: ()Ljava/lang/Object;
  Code:
   Stack=1, Locals=1, Args_size=1
	aload_0
	invokestatic	Method scala/collection/IndexedSeqLike$class.tail:(Lscala/collection/IndexedSeqLike;)Ljava/lang/Object;
	areturn
  Labels:

public java.lang.Object head();
  Signature: ()Ljava/lang/Object;
  Code:
   Stack=1, Locals=1, Args_size=1
	aload_0
	invokestatic	Method scala/collection/IndexedSeqLike$class.head:(Lscala/collection/IndexedSeqLike;)Ljava/lang/Object;
	areturn
  Labels:

public java.lang.Object foldLeft(java.lang.Object, scala.Function2);
  Signature: (Ljava/lang/Object;Lscala/Function2;)Ljava/lang/Object;
  Code:
   Stack=3, Locals=3, Args_size=3
	aload_0
	aload_1
	aload_2
	invokestatic	Method scala/collection/IndexedSeqLike$class.foldLeft:(Lscala/collection/IndexedSeqLike;Ljava/lang/Object;Lscala/Function2;)Ljava/lang/Object;
	areturn
  Labels:
  LocalVariableTable: 
   Start  Length  Slot  Name   Signature
   0      7      0    this       Lscala/collection/immutable/StringOps;
   0      7      1    z       Ljava/lang/Object;
   0      7      2    op       Lscala/Function2;


public boolean forall(scala.Function1);
  Signature: (Lscala/Function1;)Z
  Code:
   Stack=2, Locals=2, Args_size=2
	aload_0
	aload_1
	invokestatic	Method scala/collection/IndexedSeqLike$class.forall:(Lscala/collection/IndexedSeqLike;Lscala/Function1;)Z
	ireturn
  Labels:
  LocalVariableTable: 
   Start  Length  Slot  Name   Signature
   0      6      0    this       Lscala/collection/immutable/StringOps;
   0      6      1    p       Lscala/Function1;


public void foreach(scala.Function1);
  Signature: (Lscala/Function1;)V
  Code:
   Stack=2, Locals=2, Args_size=2
	aload_0
	aload_1
	invokestatic	Method scala/collection/IndexedSeqLike$class.foreach:(Lscala/collection/IndexedSeqLike;Lscala/Function1;)V
	return
  Labels:
  LocalVariableTable: 
   Start  Length  Slot  Name   Signature
   0      6      0    this       Lscala/collection/immutable/StringOps;
   0      6      1    f       Lscala/Function1;


public boolean isEmpty();
  Signature: ()Z
  Code:
   Stack=1, Locals=1, Args_size=1
	aload_0
	invokestatic	Method scala/collection/IndexedSeqLike$class.isEmpty:(Lscala/collection/IndexedSeqLike;)Z
	ireturn
  Labels:

public scala.collection.Iterator iterator();
  Signature: ()Lscala/collection/Iterator;
  Code:
   Stack=1, Locals=1, Args_size=1
	aload_0
	invokestatic	Method scala/collection/IndexedSeqLike$class.iterator:(Lscala/collection/IndexedSeqLike;)Lscala/collection/Iterator;
	areturn
  Labels:

public final boolean scala$collection$IndexedSeqLike$$super$sameElements(scala.collection.Iterable);
  Signature: (Lscala/collection/Iterable;)Z
  Code:
   Stack=2, Locals=2, Args_size=2
	aload_0
	aload_1
	invokestatic	Method scala/collection/IterableLike$class.sameElements:(Lscala/collection/IterableLike;Lscala/collection/Iterable;)Z
	ireturn
  Labels:
  LocalVariableTable: 
   Start  Length  Slot  Name   Signature
   0      6      0    this       Lscala/collection/immutable/StringOps;
   0      6      1    that       Lscala/collection/Iterable;


public final java.lang.Object scala$collection$IndexedSeqLike$$super$tail();
  Signature: ()Ljava/lang/Object;
  Code:
   Stack=1, Locals=1, Args_size=1
	aload_0
	invokestatic	Method scala/collection/TraversableLike$class.tail:(Lscala/collection/TraversableLike;)Ljava/lang/Object;
	areturn
  Labels:

public final java.lang.Object scala$collection$IndexedSeqLike$$super$head();
  Signature: ()Ljava/lang/Object;
  Code:
   Stack=1, Locals=1, Args_size=1
	aload_0
	invokestatic	Method scala/collection/IterableLike$class.head:(Lscala/collection/IterableLike;)Ljava/lang/Object;
	areturn
  Labels:

public int compareTo(java.lang.Object);
  Signature: (Ljava/lang/Object;)I
  Code:
   Stack=2, Locals=2, Args_size=2
	aload_0
	aload_1
	invokestatic	Method scala/math/Ordered$class.compareTo:(Lscala/math/Ordered;Ljava/lang/Object;)I
	ireturn
  Labels:
  LocalVariableTable: 
   Start  Length  Slot  Name   Signature
   0      6      0    this       Lscala/collection/immutable/StringOps;
   0      6      1    that       Ljava/lang/Object;


public int toInt();
  Signature: ()I
  Code:
   Stack=1, Locals=1, Args_size=1
	aload_0
	invokestatic	Method scala/collection/immutable/StringLike$class.toInt:(Lscala/collection/immutable/StringLike;)I
	ireturn
  Labels:

public int compare(java.lang.String);
  Signature: (Ljava/lang/String;)I
  Code:
   Stack=2, Locals=2, Args_size=2
	aload_0
	aload_1
	invokestatic	Method scala/collection/immutable/StringLike$class.compare:(Lscala/collection/immutable/StringLike;Ljava/lang/String;)I
	ireturn
  Labels:
  LocalVariableTable: 
   Start  Length  Slot  Name   Signature
   0      6      0    this       Lscala/collection/immutable/StringOps;
   0      6      1    other       Ljava/lang/String;


public int length();
  Signature: ()I
  Code:
   Stack=1, Locals=1, Args_size=1
	aload_0
	invokestatic	Method scala/collection/immutable/StringLike$class.length:(Lscala/collection/immutable/StringLike;)I
	ireturn
  Labels:

public char apply(int);
  Signature: (I)C
  Code:
   Stack=2, Locals=2, Args_size=2
	aload_0
	iload_1
	invokestatic	Method scala/collection/immutable/StringLike$class.apply:(Lscala/collection/immutable/StringLike;I)C
	ireturn
  Labels:
  LocalVariableTable: 
   Start  Length  Slot  Name   Signature
   0      6      0    this       Lscala/collection/immutable/StringOps;
   0      6      1    n       I


}

