Compiled from "Proxy.scala"
public class scala.actors.remote.Apply0 extends java.lang.Object implements scala.ScalaObject,scala.Product,java.io.Serializable
  SourceFile: "Proxy.scala"
  ScalaSig: length = 0x32B
   05 00 7C 06 09 01 02 FFFFFF84 FFFFFF80 FFFFFF80 FFFFFF80 40 02 08 02 06
   41 70 70 6C 79 30 0A 02 03 04 01 06 72 65 6D 6F
   74 65 0A 02 05 06 01 06 61 63 74 6F 72 73 0A 01
   07 01 05 73 63 61 6C 61 13 04 00 09 11 15 10 02
   0A 0F 0D 01 0B 0A 02 0C 0D 01 04 6C 61 6E 67 0A
   01 0E 01 04 6A 61 76 61 09 02 10 0B 02 06 4F 62
   6A 65 63 74 10 02 12 13 0D 01 06 09 02 14 06 02
   0B 53 63 61 6C 61 4F 62 6A 65 63 74 10 02 12 16
   09 02 17 06 02 07 50 72 6F 64 75 63 74 08 08 19
   00 FFFFFF82 FFFFFFCA FFFFFF80 FFFFFF84 00 1B 01 04 72 66 75 6E 03 00 15
   01 1C 10 05 12 1D 1F 23 27 09 02 1E 06 02 09 46
   75 6E 63 74 69 6F 6E 32 10 02 20 21 0D 01 04 09
   02 22 04 02 0D 41 62 73 74 72 61 63 74 41 63 74
   6F 72 10 02 24 25 0D 01 02 09 02 26 02 02 05 50
   72 6F 78 79 10 02 12 28 09 02 29 06 02 04 55 6E
   69 74 08 08 2B 00 FFFFFF82 FFFFFF88 FFFFFFA0 FFFFFF80 04 1C 01 05 72 66
   75 6E 20 08 05 2D 00 FFFFFF84 00 2E 01 06 3C 69 6E 69
   74 3E 14 02 2F 30 10 02 24 00 08 05 19 2C FFFFFFC0 00
   1C 08 07 32 00 FFFFFF81 FFFFFF80 FFFFFF84 00 33 01 04 63 6F 70 79
   14 02 2F 34 08 08 35 19 31 FFFFFF90 FFFFFF80 FFFFFFC0 00 1C 08 07
   36 00 FFFFFF91 FFFFFF80 FFFFFF84 00 1B 01 0E 63 6F 70 79 24 64 65
   66 61 75 6C 74 24 31 08 08 38 00 FFFFFF84 FFFFFF80 FFFFFF80 FFFFFF84 20
   39 01 08 68 61 73 68 43 6F 64 65 14 01 3A 10 02
   12 3B 09 02 3C 06 02 03 49 6E 74 08 08 3E 00 FFFFFF84
   FFFFFF80 FFFFFF80 FFFFFF84 20 3F 01 08 74 6F 53 74 72 69 6E 67 14
   01 40 10 02 41 44 0E 02 12 42 09 02 43 06 01 06
   50 72 65 64 65 66 09 02 45 46 02 06 53 74 72 69
   6E 67 0A 02 43 06 08 08 48 00 FFFFFF84 FFFFFF80 FFFFFF80 FFFFFF84 20 49
   01 06 65 71 75 61 6C 73 14 02 4A 4D 10 02 12 4B
   09 02 4C 06 02 07 42 6F 6F 6C 65 61 6E 08 07 4E
   47 FFFFFF81 FFFFFF80 FFFFFFC0 00 4F 01 03 78 24 31 10 02 12 50 09
   02 51 06 02 03 41 6E 79 08 08 53 00 FFFFFF84 FFFFFF80 FFFFFF80 FFFFFF84
   20 54 01 0D 70 72 6F 64 75 63 74 50 72 65 66 69
   78 15 01 55 10 02 0A 56 09 02 45 0B 08 08 58 00
   FFFFFF84 FFFFFF80 FFFFFF80 FFFFFF84 20 59 01 0C 70 72 6F 64 75 63 74 41
   72 69 74 79 15 01 3A 08 08 5B 00 FFFFFF84 FFFFFF80 FFFFFF80 FFFFFF84 20
   5C 01 0E 70 72 6F 64 75 63 74 45 6C 65 6D 65 6E
   74 14 02 4F 5D 08 07 4E 5A FFFFFF81 FFFFFF80 FFFFFFC0 00 3A 08 08
   5F 00 FFFFFF84 FFFFFF80 FFFFFF80 FFFFFF84 20 60 01 08 63 61 6E 45 71 75
   61 6C 14 02 4A 61 08 07 4E 5E FFFFFF81 FFFFFF80 FFFFFFC0 00 4F 28
   02 00 63 10 02 12 64 09 02 65 06 02 0C 73 65 72
   69 61 6C 69 7A 61 62 6C 65 07 08 67 02 FFFFFF81 FFFFFF80 FFFFFF88
   02 02 68 01 06 41 70 70 6C 79 30 10 02 24 69 06
   09 01 02 FFFFFF84 FFFFFF81 FFFFFF80 FFFFFF88 02 02 6A 13 04 69 09 6B 11
   10 04 12 6C 1C 2F 09 02 6D 06 02 09 46 75 6E 63
   74 69 6F 6E 31 08 05 2D 69 FFFFFF84 00 6F 14 01 68 08
   07 71 69 FFFFFF81 FFFFFF80 FFFFFF84 40 72 01 05 61 70 70 6C 79 14
   02 2F 73 08 05 19 70 FFFFFFC0 00 1C 08 07 75 69 FFFFFF81 FFFFFF80
   FFFFFF84 40 76 01 07 75 6E 61 70 70 6C 79 14 02 77 7A
   10 03 12 78 1C 09 02 79 06 02 04 53 6F 6D 65 08
   05 7B 74 FFFFFFC0 00 2F 01 03 78 24 30 
  minor version: 0
  major version: 49
  Constant pool:
const #1 = Asciz	SourceFile;
const #2 = Asciz	Proxy.scala;
const #3 = Asciz	rfun;
const #4 = Asciz	Lscala/Function2;;
const #5 = Asciz	Lscala/Function2<Lscala/actors/AbstractActor;Lscala/actors/remote/Proxy;Ljava/lang/Object;>;;
const #6 = Asciz	Signature;
const #7 = Asciz	<init>;
const #8 = Asciz	(Lscala/Function2;)V;
const #9 = Asciz	Code;
const #10 = Asciz	LineNumberTable;
const #11 = Asciz	scala/actors/remote/Apply0;
const #12 = class	#11;	//  scala/actors/remote/Apply0
const #13 = NameAndType	#3:#4;//  rfun:Lscala/Function2;
const #14 = Field	#12.#13;	//  scala/actors/remote/Apply0.rfun:Lscala/Function2;
const #15 = Asciz	java/lang/Object;
const #16 = class	#15;	//  java/lang/Object
const #17 = Asciz	()V;
const #18 = NameAndType	#7:#17;//  "<init>":()V
const #19 = Method	#16.#18;	//  java/lang/Object."<init>":()V
const #20 = Asciz	scala/Product$class;
const #21 = class	#20;	//  scala/Product$class
const #22 = Asciz	$init$;
const #23 = Asciz	(Lscala/Product;)V;
const #24 = NameAndType	#22:#23;//  $init$:(Lscala/Product;)V
const #25 = Method	#21.#24;	//  scala/Product$class.$init$:(Lscala/Product;)V
const #26 = Asciz	this;
const #27 = Asciz	Lscala/actors/remote/Apply0;;
const #28 = Asciz	LocalVariableTable;
const #29 = Asciz	(Lscala/Function2<Lscala/actors/AbstractActor;Lscala/actors/remote/Proxy;Ljava/lang/Object;>;)V;
const #30 = Asciz	gd1$1;
const #31 = Asciz	(Lscala/Function2;)Z;
const #32 = Asciz	()Lscala/Function2;;
const #33 = NameAndType	#3:#32;//  rfun:()Lscala/Function2;
const #34 = Method	#12.#33;	//  scala/actors/remote/Apply0.rfun:()Lscala/Function2;
const #35 = Asciz	equals;
const #36 = Asciz	(Ljava/lang/Object;)Z;
const #37 = NameAndType	#35:#36;//  equals:(Ljava/lang/Object;)Z
const #38 = Method	#16.#37;	//  java/lang/Object.equals:(Ljava/lang/Object;)Z
const #39 = Asciz	canEqual;
const #40 = Asciz	productElement;
const #41 = Asciz	(I)Ljava/lang/Object;;
const #42 = Asciz	scala/runtime/BoxesRunTime;
const #43 = class	#42;	//  scala/runtime/BoxesRunTime
const #44 = Asciz	boxToInteger;
const #45 = Asciz	(I)Ljava/lang/Integer;;
const #46 = NameAndType	#44:#45;//  boxToInteger:(I)Ljava/lang/Integer;
const #47 = Method	#43.#46;	//  scala/runtime/BoxesRunTime.boxToInteger:(I)Ljava/lang/Integer;
const #48 = Asciz	(Ljava/lang/Object;Ljava/lang/Object;)Z;
const #49 = NameAndType	#35:#48;//  equals:(Ljava/lang/Object;Ljava/lang/Object;)Z
const #50 = Method	#43.#49;	//  scala/runtime/BoxesRunTime.equals:(Ljava/lang/Object;Ljava/lang/Object;)Z
const #51 = Asciz	java/lang/IndexOutOfBoundsException;
const #52 = class	#51;	//  java/lang/IndexOutOfBoundsException
const #53 = Asciz	toString;
const #54 = Asciz	()Ljava/lang/String;;
const #55 = NameAndType	#53:#54;//  toString:()Ljava/lang/String;
const #56 = Method	#16.#55;	//  java/lang/Object.toString:()Ljava/lang/String;
const #57 = Asciz	(Ljava/lang/String;)V;
const #58 = NameAndType	#7:#57;//  "<init>":(Ljava/lang/String;)V
const #59 = Method	#52.#58;	//  java/lang/IndexOutOfBoundsException."<init>":(Ljava/lang/String;)V
const #60 = Asciz	temp4;
const #61 = Asciz	I;
const #62 = Asciz	productArity;
const #63 = Asciz	()I;
const #64 = Asciz	productPrefix;
const #65 = Asciz	Apply0;
const #66 = String	#65;	//  Apply0
const #67 = NameAndType	#30:#31;//  gd1$1:(Lscala/Function2;)Z
const #68 = Method	#12.#67;	//  scala/actors/remote/Apply0.gd1$1:(Lscala/Function2;)Z
const #69 = Asciz	scala/Product;
const #70 = class	#69;	//  scala/Product
const #71 = NameAndType	#39:#36;//  canEqual:(Ljava/lang/Object;)Z
const #72 = InterfaceMethod	#70.#71;	//  scala/Product.canEqual:(Ljava/lang/Object;)Z
const #73 = Asciz	temp1;
const #74 = Asciz	Ljava/lang/Object;;
const #75 = Asciz	temp2;
const #76 = Asciz	temp3;
const #77 = Asciz	rfun$1;
const #78 = Asciz	scala/runtime/ScalaRunTime$;
const #79 = class	#78;	//  scala/runtime/ScalaRunTime$
const #80 = Asciz	MODULE$;
const #81 = Asciz	Lscala/runtime/ScalaRunTime$;;
const #82 = NameAndType	#80:#81;//  MODULE$:Lscala/runtime/ScalaRunTime$;
const #83 = Field	#79.#82;	//  scala/runtime/ScalaRunTime$.MODULE$:Lscala/runtime/ScalaRunTime$;
const #84 = Asciz	_toString;
const #85 = Asciz	(Lscala/Product;)Ljava/lang/String;;
const #86 = NameAndType	#84:#85;//  _toString:(Lscala/Product;)Ljava/lang/String;
const #87 = Method	#79.#86;	//  scala/runtime/ScalaRunTime$._toString:(Lscala/Product;)Ljava/lang/String;
const #88 = Asciz	hashCode;
const #89 = Asciz	_hashCode;
const #90 = Asciz	(Lscala/Product;)I;
const #91 = NameAndType	#89:#90;//  _hashCode:(Lscala/Product;)I
const #92 = Method	#79.#91;	//  scala/runtime/ScalaRunTime$._hashCode:(Lscala/Product;)I
const #93 = Asciz	copy$default$1;
const #94 = Asciz	copy;
const #95 = Asciz	(Lscala/Function2;)Lscala/actors/remote/Apply0;;
const #96 = NameAndType	#7:#8;//  "<init>":(Lscala/Function2;)V
const #97 = Method	#12.#96;	//  scala/actors/remote/Apply0."<init>":(Lscala/Function2;)V
const #98 = Asciz	()Lscala/Function2<Lscala/actors/AbstractActor;Lscala/actors/remote/Proxy;Ljava/lang/Object;>;;
const #99 = Asciz	productElements;
const #100 = Asciz	()Lscala/collection/Iterator;;
const #101 = Asciz	(Lscala/Product;)Lscala/collection/Iterator;;
const #102 = NameAndType	#99:#101;//  productElements:(Lscala/Product;)Lscala/collection/Iterator;
const #103 = Method	#21.#102;	//  scala/Product$class.productElements:(Lscala/Product;)Lscala/collection/Iterator;
const #104 = Asciz	productIterator;
const #105 = NameAndType	#104:#101;//  productIterator:(Lscala/Product;)Lscala/collection/Iterator;
const #106 = Method	#21.#105;	//  scala/Product$class.productIterator:(Lscala/Product;)Lscala/collection/Iterator;
const #107 = Asciz	ScalaSig;
const #108 = Asciz	scala/ScalaObject;
const #109 = class	#108;	//  scala/ScalaObject
const #110 = Asciz	java/io/Serializable;
const #111 = class	#110;	//  java/io/Serializable

{
public scala.actors.remote.Apply0(scala.Function2);
  Code:
   Stack=2, Locals=2, Args_size=2
   0:	aload_0
   1:	aload_1
   2:	putfield	#14; //Field rfun:Lscala/Function2;
   5:	aload_0
   6:	invokespecial	#19; //Method java/lang/Object."<init>":()V
   9:	aload_0
   10:	invokestatic	#25; //Method scala/Product$class.$init$:(Lscala/Product;)V
   13:	return
  LineNumberTable: 
   line 113: 0

  LocalVariableTable: 
   Start  Length  Slot  Name   Signature
   0      14      0    this       Lscala/actors/remote/Apply0;
   0      14      1    rfun       Lscala/Function2;

  Signature: length = 0x2
   00 1D 

public boolean canEqual(java.lang.Object);
  Code:
   Stack=1, Locals=2, Args_size=2
   0:	aload_1
   1:	instanceof	#12; //class scala/actors/remote/Apply0
   4:	ireturn
  LineNumberTable: 
   line 113: 0


public java.lang.Object productElement(int);
  Code:
   Stack=3, Locals=3, Args_size=2
   0:	iload_1
   1:	istore_2
   2:	iload_2
   3:	invokestatic	#47; //Method scala/runtime/BoxesRunTime.boxToInteger:(I)Ljava/lang/Integer;
   6:	iconst_0
   7:	invokestatic	#47; //Method scala/runtime/BoxesRunTime.boxToInteger:(I)Ljava/lang/Integer;
   10:	invokestatic	#50; //Method scala/runtime/BoxesRunTime.equals:(Ljava/lang/Object;Ljava/lang/Object;)Z
   13:	ifeq	21
   16:	aload_0
   17:	invokevirtual	#34; //Method rfun:()Lscala/Function2;
   20:	areturn
   21:	new	#52; //class java/lang/IndexOutOfBoundsException
   24:	dup
   25:	iload_1
   26:	invokestatic	#47; //Method scala/runtime/BoxesRunTime.boxToInteger:(I)Ljava/lang/Integer;
   29:	invokevirtual	#56; //Method java/lang/Object.toString:()Ljava/lang/String;
   32:	invokespecial	#59; //Method java/lang/IndexOutOfBoundsException."<init>":(Ljava/lang/String;)V
   35:	athrow
  LineNumberTable: 
   line 113: 0

  LocalVariableTable: 
   Start  Length  Slot  Name   Signature
   0      36      0    this       Lscala/actors/remote/Apply0;
   2      34      2    temp4       I


public int productArity();
  Code:
   Stack=1, Locals=1, Args_size=1
   0:	iconst_1
   1:	ireturn
  LineNumberTable: 
   line 113: 0


public java.lang.String productPrefix();
  Code:
   Stack=1, Locals=1, Args_size=1
   0:	ldc	#66; //String Apply0
   2:	areturn
  LineNumberTable: 
   line 113: 0


public boolean equals(java.lang.Object);
  Code:
   Stack=2, Locals=6, Args_size=2
   0:	aload_0
   1:	aload_1
   2:	if_acmpeq	59
   5:	aload_1
   6:	astore_2
   7:	aload_2
   8:	instanceof	#12; //class scala/actors/remote/Apply0
   11:	ifeq	55
   14:	aload_2
   15:	checkcast	#12; //class scala/actors/remote/Apply0
   18:	astore_3
   19:	aload_3
   20:	invokevirtual	#34; //Method rfun:()Lscala/Function2;
   23:	astore	4
   25:	aload	4
   27:	astore	5
   29:	aload_0
   30:	aload	5
   32:	invokespecial	#68; //Method gd1$1:(Lscala/Function2;)Z
   35:	ifeq	51
   38:	aload_1
   39:	checkcast	#12; //class scala/actors/remote/Apply0
   42:	aload_0
   43:	invokeinterface	#72,  2; //InterfaceMethod scala/Product.canEqual:(Ljava/lang/Object;)Z
   48:	goto	56
   51:	iconst_0
   52:	goto	56
   55:	iconst_0
   56:	ifeq	63
   59:	iconst_1
   60:	goto	64
   63:	iconst_0
   64:	ireturn
  LineNumberTable: 
   line 113: 0
   line 875: 51
   line 113: 56

  LocalVariableTable: 
   Start  Length  Slot  Name   Signature
   0      65      0    this       Lscala/actors/remote/Apply0;
   7      52      2    temp1       Ljava/lang/Object;
   19      36      3    temp2       Lscala/actors/remote/Apply0;
   25      30      4    temp3       Lscala/Function2;
   29      26      5    rfun$1       Lscala/Function2;


public java.lang.String toString();
  Code:
   Stack=2, Locals=1, Args_size=1
   0:	getstatic	#83; //Field scala/runtime/ScalaRunTime$.MODULE$:Lscala/runtime/ScalaRunTime$;
   3:	aload_0
   4:	invokevirtual	#87; //Method scala/runtime/ScalaRunTime$._toString:(Lscala/Product;)Ljava/lang/String;
   7:	areturn
  LineNumberTable: 
   line 113: 0


public int hashCode();
  Code:
   Stack=2, Locals=1, Args_size=1
   0:	getstatic	#83; //Field scala/runtime/ScalaRunTime$.MODULE$:Lscala/runtime/ScalaRunTime$;
   3:	aload_0
   4:	invokevirtual	#92; //Method scala/runtime/ScalaRunTime$._hashCode:(Lscala/Product;)I
   7:	ireturn
  LineNumberTable: 
   line 113: 0


public scala.Function2 copy$default$1();
  Code:
   Stack=1, Locals=1, Args_size=1
   0:	aload_0
   1:	invokevirtual	#34; //Method rfun:()Lscala/Function2;
   4:	areturn
  LineNumberTable: 
   line 113: 0


public scala.actors.remote.Apply0 copy(scala.Function2);
  Code:
   Stack=3, Locals=2, Args_size=2
   0:	new	#12; //class scala/actors/remote/Apply0
   3:	dup
   4:	aload_1
   5:	invokespecial	#97; //Method "<init>":(Lscala/Function2;)V
   8:	areturn
  LineNumberTable: 
   line 113: 0

  LocalVariableTable: 
   Start  Length  Slot  Name   Signature
   0      9      0    this       Lscala/actors/remote/Apply0;
   0      9      1    rfun       Lscala/Function2;


public scala.Function2 rfun();
  Code:
   Stack=1, Locals=1, Args_size=1
   0:	aload_0
   1:	getfield	#14; //Field rfun:Lscala/Function2;
   4:	areturn
  LineNumberTable: 
   line 113: 0

  Signature: length = 0x2
   00 62 

public scala.collection.Iterator productElements();
  Code:
   Stack=1, Locals=1, Args_size=1
   0:	aload_0
   1:	invokestatic	#103; //Method scala/Product$class.productElements:(Lscala/Product;)Lscala/collection/Iterator;
   4:	areturn
  LineNumberTable: 
   line 113: 0


public scala.collection.Iterator productIterator();
  Code:
   Stack=1, Locals=1, Args_size=1
   0:	aload_0
   1:	invokestatic	#106; //Method scala/Product$class.productIterator:(Lscala/Product;)Lscala/collection/Iterator;
   4:	areturn
  LineNumberTable: 
   line 113: 0


}

