Compiled from "NetKernel.scala"
public class scala.actors.remote.LocalApply0 extends java.lang.Object implements scala.ScalaObject,scala.Product,java.io.Serializable
  SourceFile: "NetKernel.scala"
  ScalaSig: length = 0x3EB
   05 00 FFFFFF81 14 06 08 01 02 FFFFFF84 FFFFFF80 FFFFFF80 FFFFFF80 40 09 02 0B
   4C 6F 63 61 6C 41 70 70 6C 79 30 0A 02 03 04 01
   06 72 65 6D 6F 74 65 0A 02 05 06 01 06 61 63 74
   6F 72 73 0A 01 07 01 05 73 63 61 6C 61 03 00 13
   04 00 0A 12 16 10 02 0B 10 0D 01 0C 0A 02 0D 0E
   01 04 6C 61 6E 67 0A 01 0F 01 04 6A 61 76 61 09
   02 11 0C 02 06 4F 62 6A 65 63 74 10 02 13 14 0D
   01 06 09 02 15 06 02 0B 53 63 61 6C 61 4F 62 6A
   65 63 74 10 02 13 17 09 02 18 06 02 07 50 72 6F
   64 75 63 74 08 08 1A 00 FFFFFF82 FFFFFFCA FFFFFF80 FFFFFF84 00 1B 01 04
   72 66 75 6E 15 01 1C 10 05 13 1D 1F 23 27 09 02
   1E 06 02 09 46 75 6E 63 74 69 6F 6E 32 10 02 20
   21 0D 01 04 09 02 22 04 02 0D 41 62 73 74 72 61
   63 74 41 63 74 6F 72 10 02 24 25 0D 01 02 09 02
   26 02 02 05 50 72 6F 78 79 10 02 13 28 09 02 29
   06 02 04 55 6E 69 74 08 08 2B 00 FFFFFF82 FFFFFF88 FFFFFFA0 FFFFFF80 04
   1C 01 05 72 66 75 6E 20 08 08 2D 00 FFFFFF82 FFFFFFCA FFFFFF80 FFFFFF84
   00 2E 01 01 61 15 01 1F 08 08 30 00 FFFFFF82 FFFFFF88 FFFFFFA0 FFFFFF80
   04 1F 01 02 61 20 08 05 32 00 FFFFFF84 00 33 01 06 3C
   69 6E 69 74 3E 14 03 34 35 36 10 02 24 00 08 05
   1A 31 FFFFFFC0 00 1C 08 05 2D 31 FFFFFFC0 00 1F 08 07 38 00
   FFFFFF81 FFFFFF80 FFFFFF84 00 39 01 04 63 6F 70 79 14 03 34 3A 48
   08 08 3B 1A 37 FFFFFF90 FFFFFF80 FFFFFFC0 00 1C 08 07 3C 00 FFFFFF91 FFFFFF80
   FFFFFF84 00 3D 01 0E 63 6F 70 79 24 64 65 66 61 75 6C
   74 24 31 15 01 3E 2A 02 1C 3F 2B 01 40 10 02 41
   46 0D 01 42 0A 02 43 44 01 09 75 6E 63 68 65 63
   6B 65 64 0A 02 45 06 01 0A 61 6E 6E 6F 74 61 74
   69 6F 6E 09 02 47 42 02 11 75 6E 63 68 65 63 6B
   65 64 56 61 72 69 61 6E 63 65 08 08 49 2D 37 FFFFFF90
   FFFFFF80 FFFFFFC0 00 1F 08 07 4A 00 FFFFFF91 FFFFFF80 FFFFFF84 00 4B 01 0E 63
   6F 70 79 24 64 65 66 61 75 6C 74 24 32 15 01 4C
   2A 02 1F 3F 08 08 4E 00 FFFFFF84 FFFFFF80 FFFFFF80 FFFFFF84 20 4F 01 08
   68 61 73 68 43 6F 64 65 14 01 50 10 02 13 51 09
   02 52 06 02 03 49 6E 74 08 08 54 00 FFFFFF84 FFFFFF80 FFFFFF80 FFFFFF84
   20 55 01 08 74 6F 53 74 72 69 6E 67 14 01 56 10
   02 57 5A 0E 02 13 58 09 02 59 06 01 06 50 72 65
   64 65 66 09 02 5B 5C 02 06 53 74 72 69 6E 67 0A
   02 59 06 08 08 5E 00 FFFFFF84 FFFFFF80 FFFFFF80 FFFFFF84 20 5F 01 06 65
   71 75 61 6C 73 14 02 60 63 10 02 13 61 09 02 62
   06 02 07 42 6F 6F 6C 65 61 6E 08 07 64 5D FFFFFF81 FFFFFF80
   FFFFFFC0 00 65 01 03 78 24 31 10 02 13 66 09 02 67 06
   02 03 41 6E 79 08 08 69 00 FFFFFF84 FFFFFF80 FFFFFF80 FFFFFF84 20 6A 01
   0D 70 72 6F 64 75 63 74 50 72 65 66 69 78 15 01
   6B 10 02 0B 6C 09 02 5B 0C 08 08 6E 00 FFFFFF84 FFFFFF80 FFFFFF80
   FFFFFF84 20 6F 01 0C 70 72 6F 64 75 63 74 41 72 69 74
   79 15 01 50 08 08 71 00 FFFFFF84 FFFFFF80 FFFFFF80 FFFFFF84 20 72 01 0E
   70 72 6F 64 75 63 74 45 6C 65 6D 65 6E 74 14 02
   65 73 08 07 64 70 FFFFFF81 FFFFFF80 FFFFFFC0 00 50 08 08 75 00 FFFFFF84
   FFFFFF80 FFFFFF80 FFFFFF84 20 76 01 08 63 61 6E 45 71 75 61 6C 14
   02 60 77 08 07 64 74 FFFFFF81 FFFFFF80 FFFFFFC0 00 65 28 02 00 79
   10 02 13 7A 09 02 7B 06 02 0C 73 65 72 69 61 6C
   69 7A 61 62 6C 65 07 07 7D 02 FFFFFF81 FFFFFF80 FFFFFF88 02 7E 01
   0B 4C 6F 63 61 6C 41 70 70 6C 79 30 10 02 24 7F
   06 09 01 02 FFFFFF84 FFFFFF81 FFFFFF80 FFFFFF88 02 FFFFFF81 00 13 05 7F 0A FFFFFF81
   01 12 10 05 13 1D 1C 1F 34 08 06 32 7F FFFFFF84 00 FFFFFF81
   03 14 01 7E 08 09 FFFFFF81 05 7F FFFFFF81 FFFFFF80 FFFFFF84 40 FFFFFF81 06 01
   05 61 70 70 6C 79 14 05 34 FFFFFF81 07 FFFFFF81 08 08 06 1A
   FFFFFF81 04 FFFFFFC0 00 1C 08 06 2D FFFFFF81 04 FFFFFFC0 00 1F 08 09 FFFFFF81
   0A 7F FFFFFF81 FFFFFF80 FFFFFF84 40 FFFFFF81 0B 01 07 75 6E 61 70 70 6C
   79 14 04 FFFFFF81 0C FFFFFF81 12 10 05 13 FFFFFF81 0D FFFFFF81 0F 09 03
   FFFFFF81 0E 06 02 04 53 6F 6D 65 10 05 13 FFFFFF81 10 1C 1F
   09 03 FFFFFF81 11 06 02 06 54 75 70 6C 65 32 08 07 FFFFFF81
   13 FFFFFF81 09 FFFFFFC0 00 34 01 03 78 24 30 
  minor version: 0
  major version: 49
  Constant pool:
Asciz	SourceFile;
Asciz	NetKernel.scala;
Asciz	tupled;
Asciz	()Lscala/Function1;;
Asciz	Code;
Asciz	scala/actors/remote/LocalApply0$;
class	scala/actors/remote/LocalApply0$
Asciz	MODULE$;
Asciz	Lscala/actors/remote/LocalApply0$;;
NameAndType	MODULE$:Lscala/actors/remote/LocalApply0$;
Field	scala/actors/remote/LocalApply0$.MODULE$:Lscala/actors/remote/LocalApply0$;
NameAndType	tupled:()Lscala/Function1;
Method	scala/actors/remote/LocalApply0$.tupled:()Lscala/Function1;
Asciz	curry;
NameAndType	curry:()Lscala/Function1;
Method	scala/actors/remote/LocalApply0$.curry:()Lscala/Function1;
Asciz	Deprecated;
Asciz	curried;
NameAndType	curried:()Lscala/Function1;
Method	scala/actors/remote/LocalApply0$.curried:()Lscala/Function1;
Asciz	a;
Asciz	Lscala/actors/AbstractActor;;
Asciz	rfun;
Asciz	Lscala/Function2;;
Asciz	Lscala/Function2<Lscala/actors/AbstractActor;Lscala/actors/remote/Proxy;Ljava/lang/Object;>;;
Asciz	Signature;
Asciz	<init>;
Asciz	(Lscala/Function2;Lscala/actors/AbstractActor;)V;
Asciz	LineNumberTable;
Asciz	scala/actors/remote/LocalApply0;
class	scala/actors/remote/LocalApply0
NameAndType	rfun:Lscala/Function2;
Field	scala/actors/remote/LocalApply0.rfun:Lscala/Function2;
NameAndType	a:Lscala/actors/AbstractActor;
Field	scala/actors/remote/LocalApply0.a:Lscala/actors/AbstractActor;
Asciz	java/lang/Object;
class	java/lang/Object
Asciz	()V;
NameAndType	"<init>":()V
Method	java/lang/Object."<init>":()V
Asciz	scala/Product$class;
class	scala/Product$class
Asciz	$init$;
Asciz	(Lscala/Product;)V;
NameAndType	$init$:(Lscala/Product;)V
Method	scala/Product$class.$init$:(Lscala/Product;)V
Asciz	this;
Asciz	Lscala/actors/remote/LocalApply0;;
Asciz	LocalVariableTable;
Asciz	(Lscala/Function2<Lscala/actors/AbstractActor;Lscala/actors/remote/Proxy;Ljava/lang/Object;>;Lscala/actors/AbstractActor;)V;
Asciz	gd3$1;
Asciz	(Lscala/Function2;Lscala/actors/AbstractActor;)Z;
Asciz	()Lscala/Function2;;
NameAndType	rfun:()Lscala/Function2;
Method	scala/actors/remote/LocalApply0.rfun:()Lscala/Function2;
Asciz	equals;
Asciz	(Ljava/lang/Object;)Z;
NameAndType	equals:(Ljava/lang/Object;)Z
Method	java/lang/Object.equals:(Ljava/lang/Object;)Z
Asciz	()Lscala/actors/AbstractActor;;
NameAndType	a:()Lscala/actors/AbstractActor;
Method	scala/actors/remote/LocalApply0.a:()Lscala/actors/AbstractActor;
Asciz	canEqual;
Asciz	productElement;
Asciz	(I)Ljava/lang/Object;;
Asciz	java/lang/IndexOutOfBoundsException;
class	java/lang/IndexOutOfBoundsException
Asciz	scala/runtime/BoxesRunTime;
class	scala/runtime/BoxesRunTime
Asciz	boxToInteger;
Asciz	(I)Ljava/lang/Integer;;
NameAndType	boxToInteger:(I)Ljava/lang/Integer;
Method	scala/runtime/BoxesRunTime.boxToInteger:(I)Ljava/lang/Integer;
Asciz	toString;
Asciz	()Ljava/lang/String;;
NameAndType	toString:()Ljava/lang/String;
Method	java/lang/Object.toString:()Ljava/lang/String;
Asciz	(Ljava/lang/String;)V;
NameAndType	"<init>":(Ljava/lang/String;)V
Method	java/lang/IndexOutOfBoundsException."<init>":(Ljava/lang/String;)V
Asciz	productArity;
Asciz	()I;
Asciz	productPrefix;
Asciz	LocalApply0;
String	LocalApply0
NameAndType	gd3$1:(Lscala/Function2;Lscala/actors/AbstractActor;)Z
Method	scala/actors/remote/LocalApply0.gd3$1:(Lscala/Function2;Lscala/actors/AbstractActor;)Z
Asciz	scala/Equals;
class	scala/Equals
NameAndType	canEqual:(Ljava/lang/Object;)Z
InterfaceMethod	scala/Equals.canEqual:(Ljava/lang/Object;)Z
Asciz	temp15;
Asciz	temp16;
Asciz	temp17;
Asciz	scala/runtime/ScalaRunTime$;
class	scala/runtime/ScalaRunTime$
Asciz	Lscala/runtime/ScalaRunTime$;;
NameAndType	MODULE$:Lscala/runtime/ScalaRunTime$;
Field	scala/runtime/ScalaRunTime$.MODULE$:Lscala/runtime/ScalaRunTime$;
Asciz	_toString;
Asciz	(Lscala/Product;)Ljava/lang/String;;
NameAndType	_toString:(Lscala/Product;)Ljava/lang/String;
Method	scala/runtime/ScalaRunTime$._toString:(Lscala/Product;)Ljava/lang/String;
Asciz	hashCode;
Asciz	_hashCode;
Asciz	(Lscala/Product;)I;
NameAndType	_hashCode:(Lscala/Product;)I
Method	scala/runtime/ScalaRunTime$._hashCode:(Lscala/Product;)I
Asciz	copy;
Asciz	(Lscala/Function2;Lscala/actors/AbstractActor;)Lscala/actors/remote/LocalApply0;;
NameAndType	"<init>":(Lscala/Function2;Lscala/actors/AbstractActor;)V
Method	scala/actors/remote/LocalApply0."<init>":(Lscala/Function2;Lscala/actors/AbstractActor;)V
Asciz	()Lscala/Function2<Lscala/actors/AbstractActor;Lscala/actors/remote/Proxy;Ljava/lang/Object;>;;
Asciz	copy$default$1;
Asciz	copy$default$2;
Asciz	productElements;
Asciz	()Lscala/collection/Iterator;;
Asciz	(Lscala/Product;)Lscala/collection/Iterator;;
NameAndType	productElements:(Lscala/Product;)Lscala/collection/Iterator;
Method	scala/Product$class.productElements:(Lscala/Product;)Lscala/collection/Iterator;
Asciz	productIterator;
NameAndType	productIterator:(Lscala/Product;)Lscala/collection/Iterator;
Method	scala/Product$class.productIterator:(Lscala/Product;)Lscala/collection/Iterator;
Asciz	ScalaSig;
Asciz	scala/ScalaObject;
class	scala/ScalaObject
Asciz	scala/Product;
class	scala/Product
Asciz	java/io/Serializable;
class	java/io/Serializable

{
private final scala.actors.AbstractActor a;
  Signature: Lscala/actors/AbstractActor;

private final scala.Function2 rfun;
  Signature: Lscala/Function2;
  Signature: length = 0x2
   00 19 

public static final scala.Function1 tupled();
  Signature: ()Lscala/Function1;
  Code:
   Stack=1, Locals=0, Args_size=0
	getstatic	Field scala/actors/remote/LocalApply0$.MODULE$:Lscala/actors/remote/LocalApply0$;
	invokevirtual	Method scala/actors/remote/LocalApply0$.tupled:()Lscala/Function1;
	areturn
  Labels:

public static final scala.Function1 curry();
  Signature: ()Lscala/Function1;
  Code:
   Stack=1, Locals=0, Args_size=0
	getstatic	Field scala/actors/remote/LocalApply0$.MODULE$:Lscala/actors/remote/LocalApply0$;
	invokevirtual	Method scala/actors/remote/LocalApply0$.curry:()Lscala/Function1;
	areturn
  Labels:
  Deprecated: true

public static final scala.Function1 curried();
  Signature: ()Lscala/Function1;
  Code:
   Stack=1, Locals=0, Args_size=0
	getstatic	Field scala/actors/remote/LocalApply0$.MODULE$:Lscala/actors/remote/LocalApply0$;
	invokevirtual	Method scala/actors/remote/LocalApply0$.curried:()Lscala/Function1;
	areturn
  Labels:

public scala.actors.remote.LocalApply0(scala.Function2, scala.actors.AbstractActor);
  Signature: (Lscala/Function2;Lscala/actors/AbstractActor;)V
  Code:
   Stack=2, Locals=3, Args_size=3
	aload_0
	aload_1
	putfield	Field rfun:Lscala/Function2;
	aload_0
	aload_2
	putfield	Field a:Lscala/actors/AbstractActor;
	aload_0
	invokespecial	Method java/lang/Object."<init>":()V
	aload_0
	invokestatic	Method scala/Product$class.$init$:(Lscala/Product;)V
	return
  Labels:
  LocalVariableTable: 
   Start  Length  Slot  Name   Signature
   0      19      0    this       Lscala/actors/remote/LocalApply0;
   0      19      1    rfun       Lscala/Function2;
   0      19      2    a       Lscala/actors/AbstractActor;

  Signature: length = 0x2
   00 32 

private final boolean gd3$1(scala.Function2, scala.actors.AbstractActor);
  Signature: (Lscala/Function2;Lscala/actors/AbstractActor;)Z
  Code:
   Stack=2, Locals=5, Args_size=3
	aload_1
	aload_0
	invokevirtual	Method rfun:()Lscala/Function2;
	astore_3
	dup
	ifnonnull	l1 // aload_3
	pop
	aload_3
	ifnull	l2 // aload_2
	goto	l3 // iconst_0
l1	aload_3
	invokevirtual	Method java/lang/Object.equals:(Ljava/lang/Object;)Z
	ifeq	l3 // iconst_0
l2	aload_2
	aload_0
	invokevirtual	Method a:()Lscala/actors/AbstractActor;
	astore	4
	dup
	ifnonnull	l4 // aload
	pop
	aload	4
	ifnull	l5 // iconst_1
	goto	l3 // iconst_0
l4	aload	4
	invokevirtual	Method java/lang/Object.equals:(Ljava/lang/Object;)Z
	ifeq	l3 // iconst_0
l5	iconst_1
	goto	l6 // ireturn
l3	iconst_0
l6	ireturn
  Labels:
   	l1 = 18 // aload_3
   	l2 = 25 // aload_2
   	l4 = 45 // aload
   	l5 = 53 // iconst_1
   	l3 = 57 // iconst_0
   	l6 = 58 // ireturn

public boolean canEqual(java.lang.Object);
  Signature: (Ljava/lang/Object;)Z
  Code:
   Stack=1, Locals=2, Args_size=2
	aload_1
	instanceof	class scala/actors/remote/LocalApply0
	ireturn
  Labels:

public java.lang.Object productElement(int);
  Signature: (I)Ljava/lang/Object;
  Code:
   Stack=3, Locals=2, Args_size=2
	iload_1
	tableswitch{ //0 to 1
		0: 46;
		1: 39;
		default: 24 }
	new	class java/lang/IndexOutOfBoundsException
	dup
	iload_1
	invokestatic	Method scala/runtime/BoxesRunTime.boxToInteger:(I)Ljava/lang/Integer;
	invokevirtual	Method java/lang/Object.toString:()Ljava/lang/String;
	invokespecial	Method java/lang/IndexOutOfBoundsException."<init>":(Ljava/lang/String;)V
	athrow
	aload_0
	invokevirtual	Method a:()Lscala/actors/AbstractActor;
	goto	l1 // areturn
	aload_0
	invokevirtual	Method rfun:()Lscala/Function2;
l1	areturn
  Labels:
   	l1 = 50 // areturn

public int productArity();
  Signature: ()I
  Code:
   Stack=1, Locals=1, Args_size=1
	iconst_2
	ireturn
  Labels:

public java.lang.String productPrefix();
  Signature: ()Ljava/lang/String;
  Code:
   Stack=1, Locals=1, Args_size=1
	ldc	String LocalApply0
	areturn
  Labels:

public boolean equals(java.lang.Object);
  Signature: (Ljava/lang/Object;)Z
  Code:
   Stack=3, Locals=5, Args_size=2
	aload_0
	aload_1
	if_acmpeq	l1 // iconst_1
	aload_1
	instanceof	class scala/actors/remote/LocalApply0
	ifeq	l2 // iconst_0
	aload_1
	checkcast	class scala/actors/remote/LocalApply0
	astore_2
	aload_2
	invokevirtual	Method rfun:()Lscala/Function2;
	astore_3
	aload_2
	invokevirtual	Method a:()Lscala/actors/AbstractActor;
	astore	4
	aload_0
	aload_3
	aload	4
	invokespecial	Method gd3$1:(Lscala/Function2;Lscala/actors/AbstractActor;)Z
	ifeq	l3 // iconst_0
	aload_1
	checkcast	class scala/actors/remote/LocalApply0
	aload_0
	invokeinterface	InterfaceMethod scala/Equals.canEqual:(Ljava/lang/Object;)Z
	goto	l4 // ifeq
l3	iconst_0
	goto	l4 // ifeq
l2	iconst_0
l4	ifeq	l5 // iconst_0
l1	iconst_1
	goto	l6 // ireturn
l5	iconst_0
l6	ireturn
  Labels:
   	l3 = 51 // iconst_0
   	l2 = 55 // iconst_0
   	l4 = 56 // ifeq
   	l1 = 59 // iconst_1
   	l5 = 63 // iconst_0
   	l6 = 64 // ireturn
  LocalVariableTable: 
   Start  Length  Slot  Name   Signature
   0      65      0    this       Lscala/actors/remote/LocalApply0;
   17      38      2    temp15       Lscala/actors/remote/LocalApply0;
   22      33      3    temp16       Lscala/Function2;
   28      27      4    temp17       Lscala/actors/AbstractActor;


public java.lang.String toString();
  Signature: ()Ljava/lang/String;
  Code:
   Stack=2, Locals=1, Args_size=1
	getstatic	Field scala/runtime/ScalaRunTime$.MODULE$:Lscala/runtime/ScalaRunTime$;
	aload_0
	invokevirtual	Method scala/runtime/ScalaRunTime$._toString:(Lscala/Product;)Ljava/lang/String;
	areturn
  Labels:

public int hashCode();
  Signature: ()I
  Code:
   Stack=2, Locals=1, Args_size=1
	getstatic	Field scala/runtime/ScalaRunTime$.MODULE$:Lscala/runtime/ScalaRunTime$;
	aload_0
	invokevirtual	Method scala/runtime/ScalaRunTime$._hashCode:(Lscala/Product;)I
	ireturn
  Labels:

public scala.actors.remote.LocalApply0 copy(scala.Function2, scala.actors.AbstractActor);
  Signature: (Lscala/Function2;Lscala/actors/AbstractActor;)Lscala/actors/remote/LocalApply0;
  Code:
   Stack=4, Locals=3, Args_size=3
	new	class scala/actors/remote/LocalApply0
	dup
	aload_1
	aload_2
	invokespecial	Method "<init>":(Lscala/Function2;Lscala/actors/AbstractActor;)V
	areturn
  Labels:
  LocalVariableTable: 
   Start  Length  Slot  Name   Signature
   0      10      0    this       Lscala/actors/remote/LocalApply0;
   0      10      1    rfun       Lscala/Function2;
   0      10      2    a       Lscala/actors/AbstractActor;


public scala.actors.AbstractActor a();
  Signature: ()Lscala/actors/AbstractActor;
  Code:
   Stack=1, Locals=1, Args_size=1
	aload_0
	getfield	Field a:Lscala/actors/AbstractActor;
	areturn
  Labels:

public scala.Function2 rfun();
  Signature: ()Lscala/Function2;
  Code:
   Stack=1, Locals=1, Args_size=1
	aload_0
	getfield	Field rfun:Lscala/Function2;
	areturn
  Labels:
  Signature: length = 0x2
   00 71 

public scala.Function2 copy$default$1();
  Signature: ()Lscala/Function2;
  Code:
   Stack=1, Locals=1, Args_size=1
	aload_0
	invokevirtual	Method rfun:()Lscala/Function2;
	areturn
  Labels:

public scala.actors.AbstractActor copy$default$2();
  Signature: ()Lscala/actors/AbstractActor;
  Code:
   Stack=1, Locals=1, Args_size=1
	aload_0
	invokevirtual	Method a:()Lscala/actors/AbstractActor;
	areturn
  Labels:

public scala.collection.Iterator productElements();
  Signature: ()Lscala/collection/Iterator;
  Code:
   Stack=1, Locals=1, Args_size=1
	aload_0
	invokestatic	Method scala/Product$class.productElements:(Lscala/Product;)Lscala/collection/Iterator;
	areturn
  Labels:
  Deprecated: true

public scala.collection.Iterator productIterator();
  Signature: ()Lscala/collection/Iterator;
  Code:
   Stack=1, Locals=1, Args_size=1
	aload_0
	invokestatic	Method scala/Product$class.productIterator:(Lscala/Product;)Lscala/collection/Iterator;
	areturn
  Labels:

}

