Compiled from "NetKernel.scala"
public class scala.actors.remote.LocalApply0 extends java.lang.Object implements scala.ScalaObject,scala.Product,java.io.Serializable
  SourceFile: "NetKernel.scala"
  ScalaSig: length = 0x390
   05 00 FFFFFF81 07 06 08 01 02 FFFFFF84 FFFFFF80 FFFFFF80 FFFFFF80 40 09 02 0B
   4C 6F 63 61 6C 41 70 70 6C 79 30 0A 02 03 04 01
   06 72 65 6D 6F 74 65 0A 02 05 06 01 06 61 63 74
   6F 72 73 0A 01 07 01 05 73 63 61 6C 61 03 00 13
   04 00 0A 12 16 10 02 0B 10 0D 01 0C 0A 02 0D 0E
   01 04 6C 61 6E 67 0A 01 0F 01 04 6A 61 76 61 09
   02 11 0C 02 06 4F 62 6A 65 63 74 10 02 13 14 0D
   01 06 09 02 15 06 02 0B 53 63 61 6C 61 4F 62 6A
   65 63 74 10 02 13 17 09 02 18 06 02 07 50 72 6F
   64 75 63 74 08 08 1A 00 FFFFFF82 FFFFFFCA FFFFFF80 FFFFFF84 00 1B 01 04
   72 66 75 6E 15 01 1C 10 05 13 1D 1F 23 27 09 02
   1E 06 02 09 46 75 6E 63 74 69 6F 6E 32 10 02 20
   21 0D 01 04 09 02 22 04 02 0D 41 62 73 74 72 61
   63 74 41 63 74 6F 72 10 02 24 25 0D 01 02 09 02
   26 02 02 05 50 72 6F 78 79 10 02 13 28 09 02 29
   06 02 04 55 6E 69 74 08 08 2B 00 FFFFFF82 FFFFFF88 FFFFFFA0 FFFFFF80 04
   1C 01 05 72 66 75 6E 20 08 08 2D 00 FFFFFF82 FFFFFFCA FFFFFF80 FFFFFF84
   00 2E 01 01 61 15 01 1F 08 08 30 00 FFFFFF82 FFFFFF88 FFFFFFA0 FFFFFF80
   04 1F 01 02 61 20 08 05 32 00 FFFFFF84 00 33 01 06 3C
   69 6E 69 74 3E 14 03 34 35 36 10 02 24 00 08 05
   1A 31 FFFFFFC0 00 1C 08 05 2D 31 FFFFFFC0 00 1F 08 07 38 00
   FFFFFF81 FFFFFF80 FFFFFF84 00 39 01 04 63 6F 70 79 14 03 34 3A 3D
   08 08 3B 1A 37 FFFFFF90 FFFFFF80 FFFFFFC0 00 1C 08 07 3C 00 FFFFFF91 FFFFFF80
   FFFFFF84 00 1B 01 0E 63 6F 70 79 24 64 65 66 61 75 6C
   74 24 31 08 08 3E 2D 37 FFFFFF90 FFFFFF80 FFFFFFC0 00 1F 08 07 3F
   00 FFFFFF91 FFFFFF80 FFFFFF84 00 2E 01 0E 63 6F 70 79 24 64 65 66
   61 75 6C 74 24 32 08 08 41 00 FFFFFF84 FFFFFF80 FFFFFF80 FFFFFF84 20 42
   01 08 68 61 73 68 43 6F 64 65 14 01 43 10 02 13
   44 09 02 45 06 02 03 49 6E 74 08 08 47 00 FFFFFF84 FFFFFF80
   FFFFFF80 FFFFFF84 20 48 01 08 74 6F 53 74 72 69 6E 67 14 01
   49 10 02 4A 4D 0E 02 13 4B 09 02 4C 06 01 06 50
   72 65 64 65 66 09 02 4E 4F 02 06 53 74 72 69 6E
   67 0A 02 4C 06 08 08 51 00 FFFFFF84 FFFFFF80 FFFFFF80 FFFFFF84 20 52 01
   06 65 71 75 61 6C 73 14 02 53 56 10 02 13 54 09
   02 55 06 02 07 42 6F 6F 6C 65 61 6E 08 07 57 50
   FFFFFF81 FFFFFF80 FFFFFFC0 00 58 01 03 78 24 31 10 02 13 59 09 02
   5A 06 02 03 41 6E 79 08 08 5C 00 FFFFFF84 FFFFFF80 FFFFFF80 FFFFFF84 20
   5D 01 0D 70 72 6F 64 75 63 74 50 72 65 66 69 78
   15 01 5E 10 02 0B 5F 09 02 4E 0C 08 08 61 00 FFFFFF84
   FFFFFF80 FFFFFF80 FFFFFF84 20 62 01 0C 70 72 6F 64 75 63 74 41 72
   69 74 79 15 01 43 08 08 64 00 FFFFFF84 FFFFFF80 FFFFFF80 FFFFFF84 20 65
   01 0E 70 72 6F 64 75 63 74 45 6C 65 6D 65 6E 74
   14 02 58 66 08 07 57 63 FFFFFF81 FFFFFF80 FFFFFFC0 00 43 08 08 68
   00 FFFFFF84 FFFFFF80 FFFFFF80 FFFFFF84 20 69 01 08 63 61 6E 45 71 75 61
   6C 14 02 53 6A 08 07 57 67 FFFFFF81 FFFFFF80 FFFFFFC0 00 58 28 02
   00 6C 10 02 13 6D 09 02 6E 06 02 0C 73 65 72 69
   61 6C 69 7A 61 62 6C 65 07 07 70 02 FFFFFF81 FFFFFF80 FFFFFF88 02
   71 01 0B 4C 6F 63 61 6C 41 70 70 6C 79 30 10 02
   24 72 06 08 01 02 FFFFFF84 FFFFFF81 FFFFFF80 FFFFFF88 02 73 13 04 72 0A
   74 12 10 05 13 1D 1C 1F 34 08 05 32 72 FFFFFF84 00 76
   14 01 71 08 07 78 72 FFFFFF81 FFFFFF80 FFFFFF84 40 79 01 05 61 70
   70 6C 79 14 03 34 7A 7B 08 05 1A 77 FFFFFFC0 00 1C 08
   05 2D 77 FFFFFFC0 00 1F 08 07 7D 72 FFFFFF81 FFFFFF80 FFFFFF84 40 7E 01
   07 75 6E 61 70 70 6C 79 14 03 7F FFFFFF81 05 10 05 13
   FFFFFF81 00 FFFFFF81 02 09 03 FFFFFF81 01 06 02 04 53 6F 6D 65 10
   05 13 FFFFFF81 03 1C 1F 09 03 FFFFFF81 04 06 02 06 54 75 70
   6C 65 32 08 06 FFFFFF81 06 7C FFFFFFC0 00 34 01 03 78 24 30
   
  minor version: 0
  major version: 49
  Constant pool:
const #1 = Asciz	SourceFile;
const #2 = Asciz	NetKernel.scala;
const #3 = Asciz	a;
const #4 = Asciz	Lscala/actors/AbstractActor;;
const #5 = Asciz	rfun;
const #6 = Asciz	Lscala/Function2;;
const #7 = Asciz	Lscala/Function2<Lscala/actors/AbstractActor;Lscala/actors/remote/Proxy;Ljava/lang/Object;>;;
const #8 = Asciz	Signature;
const #9 = Asciz	<init>;
const #10 = Asciz	(Lscala/Function2;Lscala/actors/AbstractActor;)V;
const #11 = Asciz	Code;
const #12 = Asciz	LineNumberTable;
const #13 = Asciz	scala/actors/remote/LocalApply0;
const #14 = class	#13;	//  scala/actors/remote/LocalApply0
const #15 = NameAndType	#5:#6;//  rfun:Lscala/Function2;
const #16 = Field	#14.#15;	//  scala/actors/remote/LocalApply0.rfun:Lscala/Function2;
const #17 = NameAndType	#3:#4;//  a:Lscala/actors/AbstractActor;
const #18 = Field	#14.#17;	//  scala/actors/remote/LocalApply0.a:Lscala/actors/AbstractActor;
const #19 = Asciz	java/lang/Object;
const #20 = class	#19;	//  java/lang/Object
const #21 = Asciz	()V;
const #22 = NameAndType	#9:#21;//  "<init>":()V
const #23 = Method	#20.#22;	//  java/lang/Object."<init>":()V
const #24 = Asciz	scala/Product$class;
const #25 = class	#24;	//  scala/Product$class
const #26 = Asciz	$init$;
const #27 = Asciz	(Lscala/Product;)V;
const #28 = NameAndType	#26:#27;//  $init$:(Lscala/Product;)V
const #29 = Method	#25.#28;	//  scala/Product$class.$init$:(Lscala/Product;)V
const #30 = Asciz	this;
const #31 = Asciz	Lscala/actors/remote/LocalApply0;;
const #32 = Asciz	LocalVariableTable;
const #33 = Asciz	(Lscala/Function2<Lscala/actors/AbstractActor;Lscala/actors/remote/Proxy;Ljava/lang/Object;>;Lscala/actors/AbstractActor;)V;
const #34 = Asciz	gd3$1;
const #35 = Asciz	(Lscala/actors/AbstractActor;Lscala/Function2;)Z;
const #36 = Asciz	()Lscala/Function2;;
const #37 = NameAndType	#5:#36;//  rfun:()Lscala/Function2;
const #38 = Method	#14.#37;	//  scala/actors/remote/LocalApply0.rfun:()Lscala/Function2;
const #39 = Asciz	equals;
const #40 = Asciz	(Ljava/lang/Object;)Z;
const #41 = NameAndType	#39:#40;//  equals:(Ljava/lang/Object;)Z
const #42 = Method	#20.#41;	//  java/lang/Object.equals:(Ljava/lang/Object;)Z
const #43 = Asciz	()Lscala/actors/AbstractActor;;
const #44 = NameAndType	#3:#43;//  a:()Lscala/actors/AbstractActor;
const #45 = Method	#14.#44;	//  scala/actors/remote/LocalApply0.a:()Lscala/actors/AbstractActor;
const #46 = Asciz	canEqual;
const #47 = Asciz	productElement;
const #48 = Asciz	(I)Ljava/lang/Object;;
const #49 = Asciz	java/lang/IndexOutOfBoundsException;
const #50 = class	#49;	//  java/lang/IndexOutOfBoundsException
const #51 = Asciz	scala/runtime/BoxesRunTime;
const #52 = class	#51;	//  scala/runtime/BoxesRunTime
const #53 = Asciz	boxToInteger;
const #54 = Asciz	(I)Ljava/lang/Integer;;
const #55 = NameAndType	#53:#54;//  boxToInteger:(I)Ljava/lang/Integer;
const #56 = Method	#52.#55;	//  scala/runtime/BoxesRunTime.boxToInteger:(I)Ljava/lang/Integer;
const #57 = Asciz	toString;
const #58 = Asciz	()Ljava/lang/String;;
const #59 = NameAndType	#57:#58;//  toString:()Ljava/lang/String;
const #60 = Method	#20.#59;	//  java/lang/Object.toString:()Ljava/lang/String;
const #61 = Asciz	(Ljava/lang/String;)V;
const #62 = NameAndType	#9:#61;//  "<init>":(Ljava/lang/String;)V
const #63 = Method	#50.#62;	//  java/lang/IndexOutOfBoundsException."<init>":(Ljava/lang/String;)V
const #64 = Asciz	temp18;
const #65 = Asciz	I;
const #66 = Asciz	productArity;
const #67 = Asciz	()I;
const #68 = Asciz	productPrefix;
const #69 = Asciz	LocalApply0;
const #70 = String	#69;	//  LocalApply0
const #71 = NameAndType	#34:#35;//  gd3$1:(Lscala/actors/AbstractActor;Lscala/Function2;)Z
const #72 = Method	#14.#71;	//  scala/actors/remote/LocalApply0.gd3$1:(Lscala/actors/AbstractActor;Lscala/Function2;)Z
const #73 = Asciz	scala/Product;
const #74 = class	#73;	//  scala/Product
const #75 = NameAndType	#46:#40;//  canEqual:(Ljava/lang/Object;)Z
const #76 = InterfaceMethod	#74.#75;	//  scala/Product.canEqual:(Ljava/lang/Object;)Z
const #77 = Asciz	temp14;
const #78 = Asciz	Ljava/lang/Object;;
const #79 = Asciz	temp15;
const #80 = Asciz	temp16;
const #81 = Asciz	temp17;
const #82 = Asciz	a$1;
const #83 = Asciz	rfun$2;
const #84 = Asciz	scala/runtime/ScalaRunTime$;
const #85 = class	#84;	//  scala/runtime/ScalaRunTime$
const #86 = Asciz	MODULE$;
const #87 = Asciz	Lscala/runtime/ScalaRunTime$;;
const #88 = NameAndType	#86:#87;//  MODULE$:Lscala/runtime/ScalaRunTime$;
const #89 = Field	#85.#88;	//  scala/runtime/ScalaRunTime$.MODULE$:Lscala/runtime/ScalaRunTime$;
const #90 = Asciz	_toString;
const #91 = Asciz	(Lscala/Product;)Ljava/lang/String;;
const #92 = NameAndType	#90:#91;//  _toString:(Lscala/Product;)Ljava/lang/String;
const #93 = Method	#85.#92;	//  scala/runtime/ScalaRunTime$._toString:(Lscala/Product;)Ljava/lang/String;
const #94 = Asciz	hashCode;
const #95 = Asciz	_hashCode;
const #96 = Asciz	(Lscala/Product;)I;
const #97 = NameAndType	#95:#96;//  _hashCode:(Lscala/Product;)I
const #98 = Method	#85.#97;	//  scala/runtime/ScalaRunTime$._hashCode:(Lscala/Product;)I
const #99 = Asciz	copy$default$1;
const #100 = Asciz	copy$default$2;
const #101 = Asciz	copy;
const #102 = Asciz	(Lscala/Function2;Lscala/actors/AbstractActor;)Lscala/actors/remote/LocalApply0;;
const #103 = NameAndType	#9:#10;//  "<init>":(Lscala/Function2;Lscala/actors/AbstractActor;)V
const #104 = Method	#14.#103;	//  scala/actors/remote/LocalApply0."<init>":(Lscala/Function2;Lscala/actors/AbstractActor;)V
const #105 = Asciz	()Lscala/Function2<Lscala/actors/AbstractActor;Lscala/actors/remote/Proxy;Ljava/lang/Object;>;;
const #106 = Asciz	productElements;
const #107 = Asciz	()Lscala/collection/Iterator;;
const #108 = Asciz	(Lscala/Product;)Lscala/collection/Iterator;;
const #109 = NameAndType	#106:#108;//  productElements:(Lscala/Product;)Lscala/collection/Iterator;
const #110 = Method	#25.#109;	//  scala/Product$class.productElements:(Lscala/Product;)Lscala/collection/Iterator;
const #111 = Asciz	productIterator;
const #112 = NameAndType	#111:#108;//  productIterator:(Lscala/Product;)Lscala/collection/Iterator;
const #113 = Method	#25.#112;	//  scala/Product$class.productIterator:(Lscala/Product;)Lscala/collection/Iterator;
const #114 = Asciz	ScalaSig;
const #115 = Asciz	scala/ScalaObject;
const #116 = class	#115;	//  scala/ScalaObject
const #117 = Asciz	java/io/Serializable;
const #118 = class	#117;	//  java/io/Serializable

{
public scala.actors.remote.LocalApply0(scala.Function2, scala.actors.AbstractActor);
  Code:
   Stack=2, Locals=3, Args_size=3
   0:	aload_0
   1:	aload_1
   2:	putfield	#16; //Field rfun:Lscala/Function2;
   5:	aload_0
   6:	aload_2
   7:	putfield	#18; //Field a:Lscala/actors/AbstractActor;
   10:	aload_0
   11:	invokespecial	#23; //Method java/lang/Object."<init>":()V
   14:	aload_0
   15:	invokestatic	#29; //Method scala/Product$class.$init$:(Lscala/Product;)V
   18:	return
  LineNumberTable: 
   line 19: 0

  LocalVariableTable: 
   Start  Length  Slot  Name   Signature
   0      19      0    this       Lscala/actors/remote/LocalApply0;
   0      19      1    rfun       Lscala/Function2;
   0      19      2    a       Lscala/actors/AbstractActor;

  Signature: length = 0x2
   00 21 

public boolean canEqual(java.lang.Object);
  Code:
   Stack=1, Locals=2, Args_size=2
   0:	aload_1
   1:	instanceof	#14; //class scala/actors/remote/LocalApply0
   4:	ireturn
  LineNumberTable: 
   line 19: 0


public java.lang.Object productElement(int);
  Code:
   Stack=3, Locals=3, Args_size=2
   0:	iload_1
   1:	istore_2
   2:	iload_2
   3:	tableswitch{ //0 to 1
		0: 46;
		1: 39;
		default: 24 }
   24:	new	#50; //class java/lang/IndexOutOfBoundsException
   27:	dup
   28:	iload_1
   29:	invokestatic	#56; //Method scala/runtime/BoxesRunTime.boxToInteger:(I)Ljava/lang/Integer;
   32:	invokevirtual	#60; //Method java/lang/Object.toString:()Ljava/lang/String;
   35:	invokespecial	#63; //Method java/lang/IndexOutOfBoundsException."<init>":(Ljava/lang/String;)V
   38:	athrow
   39:	aload_0
   40:	invokevirtual	#45; //Method a:()Lscala/actors/AbstractActor;
   43:	goto	50
   46:	aload_0
   47:	invokevirtual	#38; //Method rfun:()Lscala/Function2;
   50:	areturn
  LineNumberTable: 
   line 19: 0

  LocalVariableTable: 
   Start  Length  Slot  Name   Signature
   0      51      0    this       Lscala/actors/remote/LocalApply0;
   2      49      2    temp18       I


public int productArity();
  Code:
   Stack=1, Locals=1, Args_size=1
   0:	iconst_2
   1:	ireturn
  LineNumberTable: 
   line 19: 0


public java.lang.String productPrefix();
  Code:
   Stack=1, Locals=1, Args_size=1
   0:	ldc	#70; //String LocalApply0
   2:	areturn
  LineNumberTable: 
   line 19: 0


public boolean equals(java.lang.Object);
  Code:
   Stack=3, Locals=8, Args_size=2
   0:	aload_0
   1:	aload_1
   2:	if_acmpeq	75
   5:	aload_1
   6:	astore_2
   7:	aload_2
   8:	instanceof	#14; //class scala/actors/remote/LocalApply0
   11:	ifeq	71
   14:	aload_2
   15:	checkcast	#14; //class scala/actors/remote/LocalApply0
   18:	astore_3
   19:	aload_3
   20:	invokevirtual	#38; //Method rfun:()Lscala/Function2;
   23:	astore	4
   25:	aload_3
   26:	invokevirtual	#45; //Method a:()Lscala/actors/AbstractActor;
   29:	astore	5
   31:	aload	5
   33:	astore	6
   35:	aload	4
   37:	astore	7
   39:	aload_0
   40:	aload	6
   42:	aload	7
   44:	invokespecial	#72; //Method gd3$1:(Lscala/actors/AbstractActor;Lscala/Function2;)Z
   47:	ifeq	67
   50:	aload	5
   52:	astore	6
   54:	aload_1
   55:	checkcast	#14; //class scala/actors/remote/LocalApply0
   58:	aload_0
   59:	invokeinterface	#76,  2; //InterfaceMethod scala/Product.canEqual:(Ljava/lang/Object;)Z
   64:	goto	72
   67:	iconst_0
   68:	goto	72
   71:	iconst_0
   72:	ifeq	79
   75:	iconst_1
   76:	goto	80
   79:	iconst_0
   80:	ireturn
  LineNumberTable: 
   line 19: 0
   line 875: 67
   line 19: 72

  LocalVariableTable: 
   Start  Length  Slot  Name   Signature
   0      81      0    this       Lscala/actors/remote/LocalApply0;
   7      68      2    temp14       Ljava/lang/Object;
   19      52      3    temp15       Lscala/actors/remote/LocalApply0;
   25      46      4    temp16       Lscala/Function2;
   31      40      5    temp17       Lscala/actors/AbstractActor;
   35      15      6    a$1       Lscala/actors/AbstractActor;
   54      10      6    a$1       Lscala/actors/AbstractActor;
   50      21      6    a$1       Lscala/actors/AbstractActor;
   39      32      7    rfun$2       Lscala/Function2;


public java.lang.String toString();
  Code:
   Stack=2, Locals=1, Args_size=1
   0:	getstatic	#89; //Field scala/runtime/ScalaRunTime$.MODULE$:Lscala/runtime/ScalaRunTime$;
   3:	aload_0
   4:	invokevirtual	#93; //Method scala/runtime/ScalaRunTime$._toString:(Lscala/Product;)Ljava/lang/String;
   7:	areturn
  LineNumberTable: 
   line 19: 0


public int hashCode();
  Code:
   Stack=2, Locals=1, Args_size=1
   0:	getstatic	#89; //Field scala/runtime/ScalaRunTime$.MODULE$:Lscala/runtime/ScalaRunTime$;
   3:	aload_0
   4:	invokevirtual	#98; //Method scala/runtime/ScalaRunTime$._hashCode:(Lscala/Product;)I
   7:	ireturn
  LineNumberTable: 
   line 19: 0


public scala.Function2 copy$default$1();
  Code:
   Stack=1, Locals=1, Args_size=1
   0:	aload_0
   1:	invokevirtual	#38; //Method rfun:()Lscala/Function2;
   4:	areturn
  LineNumberTable: 
   line 19: 0


public scala.actors.AbstractActor copy$default$2();
  Code:
   Stack=1, Locals=1, Args_size=1
   0:	aload_0
   1:	invokevirtual	#45; //Method a:()Lscala/actors/AbstractActor;
   4:	areturn
  LineNumberTable: 
   line 19: 0


public scala.actors.remote.LocalApply0 copy(scala.Function2, scala.actors.AbstractActor);
  Code:
   Stack=4, Locals=3, Args_size=3
   0:	new	#14; //class scala/actors/remote/LocalApply0
   3:	dup
   4:	aload_1
   5:	aload_2
   6:	invokespecial	#104; //Method "<init>":(Lscala/Function2;Lscala/actors/AbstractActor;)V
   9:	areturn
  LineNumberTable: 
   line 19: 0

  LocalVariableTable: 
   Start  Length  Slot  Name   Signature
   0      10      0    this       Lscala/actors/remote/LocalApply0;
   0      10      1    rfun       Lscala/Function2;
   0      10      2    a       Lscala/actors/AbstractActor;


public scala.actors.AbstractActor a();
  Code:
   Stack=1, Locals=1, Args_size=1
   0:	aload_0
   1:	getfield	#18; //Field a:Lscala/actors/AbstractActor;
   4:	areturn
  LineNumberTable: 
   line 19: 0


public scala.Function2 rfun();
  Code:
   Stack=1, Locals=1, Args_size=1
   0:	aload_0
   1:	getfield	#16; //Field rfun:Lscala/Function2;
   4:	areturn
  LineNumberTable: 
   line 19: 0

  Signature: length = 0x2
   00 69 

public scala.collection.Iterator productElements();
  Code:
   Stack=1, Locals=1, Args_size=1
   0:	aload_0
   1:	invokestatic	#110; //Method scala/Product$class.productElements:(Lscala/Product;)Lscala/collection/Iterator;
   4:	areturn
  LineNumberTable: 
   line 19: 0


public scala.collection.Iterator productIterator();
  Code:
   Stack=1, Locals=1, Args_size=1
   0:	aload_0
   1:	invokestatic	#113; //Method scala/Product$class.productIterator:(Lscala/Product;)Lscala/collection/Iterator;
   4:	areturn
  LineNumberTable: 
   line 19: 0


}

