Compiled from "NetKernel.scala"
public class scala.actors.remote.LocalApply0 extends java.lang.Object implements scala.ScalaObject,scala.Product,java.io.Serializable
  SourceFile: "NetKernel.scala"
  ScalaSig: length = 0x3EB
   05 00 FFFFFF81 14 06 08 01 02 FFFFFF84 FFFFFF80 FFFFFF80 FFFFFF80 40 09 02 0B
   4C 6F 63 61 6C 41 70 70 6C 79 30 0A 02 03 04 01
   06 72 65 6D 6F 74 65 0A 02 05 06 01 06 61 63 74
   6F 72 73 0A 01 07 01 05 73 63 61 6C 61 03 00 13
   04 00 0A 12 16 10 02 0B 10 0D 01 0C 0A 02 0D 0E
   01 04 6C 61 6E 67 0A 01 0F 01 04 6A 61 76 61 09
   02 11 0C 02 06 4F 62 6A 65 63 74 10 02 13 14 0D
   01 06 09 02 15 06 02 0B 53 63 61 6C 61 4F 62 6A
   65 63 74 10 02 13 17 09 02 18 06 02 07 50 72 6F
   64 75 63 74 08 08 1A 00 FFFFFF82 FFFFFFCA FFFFFF80 FFFFFF84 00 1B 01 04
   72 66 75 6E 15 01 1C 10 05 13 1D 1F 23 27 09 02
   1E 06 02 09 46 75 6E 63 74 69 6F 6E 32 10 02 20
   21 0D 01 04 09 02 22 04 02 0D 41 62 73 74 72 61
   63 74 41 63 74 6F 72 10 02 24 25 0D 01 02 09 02
   26 02 02 05 50 72 6F 78 79 10 02 13 28 09 02 29
   06 02 04 55 6E 69 74 08 08 2B 00 FFFFFF82 FFFFFF88 FFFFFFA0 FFFFFF80 04
   1C 01 05 72 66 75 6E 20 08 08 2D 00 FFFFFF82 FFFFFFCA FFFFFF80 FFFFFF84
   00 2E 01 01 61 15 01 1F 08 08 30 00 FFFFFF82 FFFFFF88 FFFFFFA0 FFFFFF80
   04 1F 01 02 61 20 08 05 32 00 FFFFFF84 00 33 01 06 3C
   69 6E 69 74 3E 14 03 34 35 36 10 02 24 00 08 05
   1A 31 FFFFFFC0 00 1C 08 05 2D 31 FFFFFFC0 00 1F 08 07 38 00
   FFFFFF81 FFFFFF80 FFFFFF84 00 39 01 04 63 6F 70 79 14 03 34 3A 48
   08 08 3B 1A 37 FFFFFF90 FFFFFF80 FFFFFFC0 00 1C 08 07 3C 00 FFFFFF91 FFFFFF80
   FFFFFF84 00 3D 01 0E 63 6F 70 79 24 64 65 66 61 75 6C
   74 24 31 15 01 3E 2A 02 1C 3F 2B 01 40 10 02 41
   46 0D 01 42 0A 02 43 44 01 09 75 6E 63 68 65 63
   6B 65 64 0A 02 45 06 01 0A 61 6E 6E 6F 74 61 74
   69 6F 6E 09 02 47 42 02 11 75 6E 63 68 65 63 6B
   65 64 56 61 72 69 61 6E 63 65 08 08 49 2D 37 FFFFFF90
   FFFFFF80 FFFFFFC0 00 1F 08 07 4A 00 FFFFFF91 FFFFFF80 FFFFFF84 00 4B 01 0E 63
   6F 70 79 24 64 65 66 61 75 6C 74 24 32 15 01 4C
   2A 02 1F 3F 08 08 4E 00 FFFFFF84 FFFFFF80 FFFFFF80 FFFFFF84 20 4F 01 08
   68 61 73 68 43 6F 64 65 14 01 50 10 02 13 51 09
   02 52 06 02 03 49 6E 74 08 08 54 00 FFFFFF84 FFFFFF80 FFFFFF80 FFFFFF84
   20 55 01 08 74 6F 53 74 72 69 6E 67 14 01 56 10
   02 57 5A 0E 02 13 58 09 02 59 06 01 06 50 72 65
   64 65 66 09 02 5B 5C 02 06 53 74 72 69 6E 67 0A
   02 59 06 08 08 5E 00 FFFFFF84 FFFFFF80 FFFFFF80 FFFFFF84 20 5F 01 06 65
   71 75 61 6C 73 14 02 60 63 10 02 13 61 09 02 62
   06 02 07 42 6F 6F 6C 65 61 6E 08 07 64 5D FFFFFF81 FFFFFF80
   FFFFFFC0 00 65 01 03 78 24 31 10 02 13 66 09 02 67 06
   02 03 41 6E 79 08 08 69 00 FFFFFF84 FFFFFF80 FFFFFF80 FFFFFF84 20 6A 01
   0D 70 72 6F 64 75 63 74 50 72 65 66 69 78 15 01
   6B 10 02 0B 6C 09 02 5B 0C 08 08 6E 00 FFFFFF84 FFFFFF80 FFFFFF80
   FFFFFF84 20 6F 01 0C 70 72 6F 64 75 63 74 41 72 69 74
   79 15 01 50 08 08 71 00 FFFFFF84 FFFFFF80 FFFFFF80 FFFFFF84 20 72 01 0E
   70 72 6F 64 75 63 74 45 6C 65 6D 65 6E 74 14 02
   65 73 08 07 64 70 FFFFFF81 FFFFFF80 FFFFFFC0 00 50 08 08 75 00 FFFFFF84
   FFFFFF80 FFFFFF80 FFFFFF84 20 76 01 08 63 61 6E 45 71 75 61 6C 14
   02 60 77 08 07 64 74 FFFFFF81 FFFFFF80 FFFFFFC0 00 65 28 02 00 79
   10 02 13 7A 09 02 7B 06 02 0C 73 65 72 69 61 6C
   69 7A 61 62 6C 65 07 07 7D 02 FFFFFF81 FFFFFF80 FFFFFF88 02 7E 01
   0B 4C 6F 63 61 6C 41 70 70 6C 79 30 10 02 24 7F
   06 09 01 02 FFFFFF84 FFFFFF81 FFFFFF80 FFFFFF88 02 FFFFFF81 00 13 05 7F 0A FFFFFF81
   01 12 10 05 13 1D 1C 1F 34 08 06 32 7F FFFFFF84 00 FFFFFF81
   03 14 01 7E 08 09 FFFFFF81 05 7F FFFFFF81 FFFFFF80 FFFFFF84 40 FFFFFF81 06 01
   05 61 70 70 6C 79 14 05 34 FFFFFF81 07 FFFFFF81 08 08 06 1A
   FFFFFF81 04 FFFFFFC0 00 1C 08 06 2D FFFFFF81 04 FFFFFFC0 00 1F 08 09 FFFFFF81
   0A 7F FFFFFF81 FFFFFF80 FFFFFF84 40 FFFFFF81 0B 01 07 75 6E 61 70 70 6C
   79 14 04 FFFFFF81 0C FFFFFF81 12 10 05 13 FFFFFF81 0D FFFFFF81 0F 09 03
   FFFFFF81 0E 06 02 04 53 6F 6D 65 10 05 13 FFFFFF81 10 1C 1F
   09 03 FFFFFF81 11 06 02 06 54 75 70 6C 65 32 08 07 FFFFFF81
   13 FFFFFF81 09 FFFFFFC0 00 34 01 03 78 24 30 
  minor version: 0
  major version: 49
  Constant pool:
const #1 = Asciz	SourceFile;
const #2 = Asciz	NetKernel.scala;
const #3 = Asciz	tuple;
const #4 = Asciz	()Lscala/Function1;;
const #5 = Asciz	Code;
const #6 = Asciz	scala/actors/remote/LocalApply0$;
const #7 = class	#6;	//  scala/actors/remote/LocalApply0$
const #8 = Asciz	MODULE$;
const #9 = Asciz	Lscala/actors/remote/LocalApply0$;;
const #10 = NameAndType	#8:#9;//  MODULE$:Lscala/actors/remote/LocalApply0$;
const #11 = Field	#7.#10;	//  scala/actors/remote/LocalApply0$.MODULE$:Lscala/actors/remote/LocalApply0$;
const #12 = NameAndType	#3:#4;//  tuple:()Lscala/Function1;
const #13 = Method	#7.#12;	//  scala/actors/remote/LocalApply0$.tuple:()Lscala/Function1;
const #14 = Asciz	curry;
const #15 = NameAndType	#14:#4;//  curry:()Lscala/Function1;
const #16 = Method	#7.#15;	//  scala/actors/remote/LocalApply0$.curry:()Lscala/Function1;
const #17 = Asciz	a;
const #18 = Asciz	Lscala/actors/AbstractActor;;
const #19 = Asciz	rfun;
const #20 = Asciz	Lscala/Function2;;
const #21 = Asciz	Lscala/Function2<Lscala/actors/AbstractActor;Lscala/actors/remote/Proxy;Ljava/lang/Object;>;;
const #22 = Asciz	Signature;
const #23 = Asciz	<init>;
const #24 = Asciz	(Lscala/Function2;Lscala/actors/AbstractActor;)V;
const #25 = Asciz	LineNumberTable;
const #26 = Asciz	scala/actors/remote/LocalApply0;
const #27 = class	#26;	//  scala/actors/remote/LocalApply0
const #28 = NameAndType	#19:#20;//  rfun:Lscala/Function2;
const #29 = Field	#27.#28;	//  scala/actors/remote/LocalApply0.rfun:Lscala/Function2;
const #30 = NameAndType	#17:#18;//  a:Lscala/actors/AbstractActor;
const #31 = Field	#27.#30;	//  scala/actors/remote/LocalApply0.a:Lscala/actors/AbstractActor;
const #32 = Asciz	java/lang/Object;
const #33 = class	#32;	//  java/lang/Object
const #34 = Asciz	()V;
const #35 = NameAndType	#23:#34;//  "<init>":()V
const #36 = Method	#33.#35;	//  java/lang/Object."<init>":()V
const #37 = Asciz	scala/Product$class;
const #38 = class	#37;	//  scala/Product$class
const #39 = Asciz	$init$;
const #40 = Asciz	(Lscala/Product;)V;
const #41 = NameAndType	#39:#40;//  $init$:(Lscala/Product;)V
const #42 = Method	#38.#41;	//  scala/Product$class.$init$:(Lscala/Product;)V
const #43 = Asciz	this;
const #44 = Asciz	Lscala/actors/remote/LocalApply0;;
const #45 = Asciz	LocalVariableTable;
const #46 = Asciz	(Lscala/Function2<Lscala/actors/AbstractActor;Lscala/actors/remote/Proxy;Ljava/lang/Object;>;Lscala/actors/AbstractActor;)V;
const #47 = Asciz	gd3$1;
const #48 = Asciz	(Lscala/Function2;Lscala/actors/AbstractActor;)Z;
const #49 = Asciz	()Lscala/Function2;;
const #50 = NameAndType	#19:#49;//  rfun:()Lscala/Function2;
const #51 = Method	#27.#50;	//  scala/actors/remote/LocalApply0.rfun:()Lscala/Function2;
const #52 = Asciz	equals;
const #53 = Asciz	(Ljava/lang/Object;)Z;
const #54 = NameAndType	#52:#53;//  equals:(Ljava/lang/Object;)Z
const #55 = Method	#33.#54;	//  java/lang/Object.equals:(Ljava/lang/Object;)Z
const #56 = Asciz	()Lscala/actors/AbstractActor;;
const #57 = NameAndType	#17:#56;//  a:()Lscala/actors/AbstractActor;
const #58 = Method	#27.#57;	//  scala/actors/remote/LocalApply0.a:()Lscala/actors/AbstractActor;
const #59 = Asciz	canEqual;
const #60 = Asciz	productElement;
const #61 = Asciz	(I)Ljava/lang/Object;;
const #62 = Asciz	java/lang/IndexOutOfBoundsException;
const #63 = class	#62;	//  java/lang/IndexOutOfBoundsException
const #64 = Asciz	scala/runtime/BoxesRunTime;
const #65 = class	#64;	//  scala/runtime/BoxesRunTime
const #66 = Asciz	boxToInteger;
const #67 = Asciz	(I)Ljava/lang/Integer;;
const #68 = NameAndType	#66:#67;//  boxToInteger:(I)Ljava/lang/Integer;
const #69 = Method	#65.#68;	//  scala/runtime/BoxesRunTime.boxToInteger:(I)Ljava/lang/Integer;
const #70 = Asciz	toString;
const #71 = Asciz	()Ljava/lang/String;;
const #72 = NameAndType	#70:#71;//  toString:()Ljava/lang/String;
const #73 = Method	#33.#72;	//  java/lang/Object.toString:()Ljava/lang/String;
const #74 = Asciz	(Ljava/lang/String;)V;
const #75 = NameAndType	#23:#74;//  "<init>":(Ljava/lang/String;)V
const #76 = Method	#63.#75;	//  java/lang/IndexOutOfBoundsException."<init>":(Ljava/lang/String;)V
const #77 = Asciz	scala/MatchError;
const #78 = class	#77;	//  scala/MatchError
const #79 = Method	#78.#75;	//  scala/MatchError."<init>":(Ljava/lang/String;)V
const #80 = Asciz	productArity;
const #81 = Asciz	()I;
const #82 = Asciz	productPrefix;
const #83 = Asciz	LocalApply0;
const #84 = String	#83;	//  LocalApply0
const #85 = NameAndType	#47:#48;//  gd3$1:(Lscala/Function2;Lscala/actors/AbstractActor;)Z
const #86 = Method	#27.#85;	//  scala/actors/remote/LocalApply0.gd3$1:(Lscala/Function2;Lscala/actors/AbstractActor;)Z
const #87 = Asciz	scala/Equals;
const #88 = class	#87;	//  scala/Equals
const #89 = NameAndType	#59:#53;//  canEqual:(Ljava/lang/Object;)Z
const #90 = InterfaceMethod	#88.#89;	//  scala/Equals.canEqual:(Ljava/lang/Object;)Z
const #91 = Asciz	temp15;
const #92 = Asciz	temp16;
const #93 = Asciz	temp17;
const #94 = Asciz	scala/runtime/ScalaRunTime$;
const #95 = class	#94;	//  scala/runtime/ScalaRunTime$
const #96 = Asciz	Lscala/runtime/ScalaRunTime$;;
const #97 = NameAndType	#8:#96;//  MODULE$:Lscala/runtime/ScalaRunTime$;
const #98 = Field	#95.#97;	//  scala/runtime/ScalaRunTime$.MODULE$:Lscala/runtime/ScalaRunTime$;
const #99 = Asciz	_toString;
const #100 = Asciz	(Lscala/Product;)Ljava/lang/String;;
const #101 = NameAndType	#99:#100;//  _toString:(Lscala/Product;)Ljava/lang/String;
const #102 = Method	#95.#101;	//  scala/runtime/ScalaRunTime$._toString:(Lscala/Product;)Ljava/lang/String;
const #103 = Asciz	hashCode;
const #104 = Asciz	_hashCode;
const #105 = Asciz	(Lscala/Product;)I;
const #106 = NameAndType	#104:#105;//  _hashCode:(Lscala/Product;)I
const #107 = Method	#95.#106;	//  scala/runtime/ScalaRunTime$._hashCode:(Lscala/Product;)I
const #108 = Asciz	copy;
const #109 = Asciz	(Lscala/Function2;Lscala/actors/AbstractActor;)Lscala/actors/remote/LocalApply0;;
const #110 = NameAndType	#23:#24;//  "<init>":(Lscala/Function2;Lscala/actors/AbstractActor;)V
const #111 = Method	#27.#110;	//  scala/actors/remote/LocalApply0."<init>":(Lscala/Function2;Lscala/actors/AbstractActor;)V
const #112 = Asciz	()Lscala/Function2<Lscala/actors/AbstractActor;Lscala/actors/remote/Proxy;Ljava/lang/Object;>;;
const #113 = Asciz	copy$default$1;
const #114 = Asciz	copy$default$2;
const #115 = Asciz	productElements;
const #116 = Asciz	()Lscala/collection/Iterator;;
const #117 = Asciz	(Lscala/Product;)Lscala/collection/Iterator;;
const #118 = NameAndType	#115:#117;//  productElements:(Lscala/Product;)Lscala/collection/Iterator;
const #119 = Method	#38.#118;	//  scala/Product$class.productElements:(Lscala/Product;)Lscala/collection/Iterator;
const #120 = Asciz	Deprecated;
const #121 = Asciz	productIterator;
const #122 = NameAndType	#121:#117;//  productIterator:(Lscala/Product;)Lscala/collection/Iterator;
const #123 = Method	#38.#122;	//  scala/Product$class.productIterator:(Lscala/Product;)Lscala/collection/Iterator;
const #124 = Asciz	ScalaSig;
const #125 = Asciz	scala/ScalaObject;
const #126 = class	#125;	//  scala/ScalaObject
const #127 = Asciz	scala/Product;
const #128 = class	#127;	//  scala/Product
const #129 = Asciz	java/io/Serializable;
const #130 = class	#129;	//  java/io/Serializable

{
public static final scala.Function1 tuple();
  Code:
   Stack=1, Locals=0, Args_size=0
   0:	getstatic	#11; //Field scala/actors/remote/LocalApply0$.MODULE$:Lscala/actors/remote/LocalApply0$;
   3:	invokevirtual	#13; //Method scala/actors/remote/LocalApply0$.tuple:()Lscala/Function1;
   6:	areturn

public static final scala.Function1 curry();
  Code:
   Stack=1, Locals=0, Args_size=0
   0:	getstatic	#11; //Field scala/actors/remote/LocalApply0$.MODULE$:Lscala/actors/remote/LocalApply0$;
   3:	invokevirtual	#16; //Method scala/actors/remote/LocalApply0$.curry:()Lscala/Function1;
   6:	areturn

public scala.actors.remote.LocalApply0(scala.Function2, scala.actors.AbstractActor);
  Code:
   Stack=2, Locals=3, Args_size=3
   0:	aload_0
   1:	aload_1
   2:	putfield	#29; //Field rfun:Lscala/Function2;
   5:	aload_0
   6:	aload_2
   7:	putfield	#31; //Field a:Lscala/actors/AbstractActor;
   10:	aload_0
   11:	invokespecial	#36; //Method java/lang/Object."<init>":()V
   14:	aload_0
   15:	invokestatic	#42; //Method scala/Product$class.$init$:(Lscala/Product;)V
   18:	return
  LineNumberTable: 
   line 19: 0

  LocalVariableTable: 
   Start  Length  Slot  Name   Signature
   0      19      0    this       Lscala/actors/remote/LocalApply0;
   0      19      1    rfun       Lscala/Function2;
   0      19      2    a       Lscala/actors/AbstractActor;

  Signature: length = 0x2
   00 2E 

public boolean canEqual(java.lang.Object);
  Code:
   Stack=1, Locals=2, Args_size=2
   0:	aload_1
   1:	instanceof	#27; //class scala/actors/remote/LocalApply0
   4:	ireturn
  LineNumberTable: 
   line 19: 0


public java.lang.Object productElement(int);
  Code:
   Stack=3, Locals=2, Args_size=2
   0:	iload_1
   1:	tableswitch{ //0 to 1
		0: 84;
		1: 58;
		default: 24 }
   24:	iconst_1
   25:	ifeq	43
   28:	new	#63; //class java/lang/IndexOutOfBoundsException
   31:	dup
   32:	iload_1
   33:	invokestatic	#69; //Method scala/runtime/BoxesRunTime.boxToInteger:(I)Ljava/lang/Integer;
   36:	invokevirtual	#73; //Method java/lang/Object.toString:()Ljava/lang/String;
   39:	invokespecial	#76; //Method java/lang/IndexOutOfBoundsException."<init>":(Ljava/lang/String;)V
   42:	athrow
   43:	new	#78; //class scala/MatchError
   46:	dup
   47:	iload_1
   48:	invokestatic	#69; //Method scala/runtime/BoxesRunTime.boxToInteger:(I)Ljava/lang/Integer;
   51:	invokevirtual	#73; //Method java/lang/Object.toString:()Ljava/lang/String;
   54:	invokespecial	#79; //Method scala/MatchError."<init>":(Ljava/lang/String;)V
   57:	athrow
   58:	iconst_1
   59:	ifeq	69
   62:	aload_0
   63:	invokevirtual	#58; //Method a:()Lscala/actors/AbstractActor;
   66:	goto	92
   69:	new	#78; //class scala/MatchError
   72:	dup
   73:	iload_1
   74:	invokestatic	#69; //Method scala/runtime/BoxesRunTime.boxToInteger:(I)Ljava/lang/Integer;
   77:	invokevirtual	#73; //Method java/lang/Object.toString:()Ljava/lang/String;
   80:	invokespecial	#79; //Method scala/MatchError."<init>":(Ljava/lang/String;)V
   83:	athrow
   84:	iconst_1
   85:	ifeq	93
   88:	aload_0
   89:	invokevirtual	#51; //Method rfun:()Lscala/Function2;
   92:	areturn
   93:	new	#78; //class scala/MatchError
   96:	dup
   97:	iload_1
   98:	invokestatic	#69; //Method scala/runtime/BoxesRunTime.boxToInteger:(I)Ljava/lang/Integer;
   101:	invokevirtual	#73; //Method java/lang/Object.toString:()Ljava/lang/String;
   104:	invokespecial	#79; //Method scala/MatchError."<init>":(Ljava/lang/String;)V
   107:	athrow
  LineNumberTable: 
   line 19: 0
   line 644: 24
   line 19: 28
   line 644: 58
   line 19: 62
   line 644: 84
   line 19: 88


public int productArity();
  Code:
   Stack=1, Locals=1, Args_size=1
   0:	iconst_2
   1:	ireturn
  LineNumberTable: 
   line 19: 0


public java.lang.String productPrefix();
  Code:
   Stack=1, Locals=1, Args_size=1
   0:	ldc	#84; //String LocalApply0
   2:	areturn
  LineNumberTable: 
   line 19: 0


public boolean equals(java.lang.Object);
  Code:
   Stack=3, Locals=5, Args_size=2
   0:	aload_0
   1:	aload_1
   2:	if_acmpeq	79
   5:	aload_1
   6:	instanceof	#27; //class scala/actors/remote/LocalApply0
   9:	ifeq	71
   12:	aload_1
   13:	checkcast	#27; //class scala/actors/remote/LocalApply0
   16:	astore_2
   17:	aload_2
   18:	invokevirtual	#51; //Method rfun:()Lscala/Function2;
   21:	astore_3
   22:	aload_2
   23:	invokevirtual	#58; //Method a:()Lscala/actors/AbstractActor;
   26:	astore	4
   28:	aload_0
   29:	aload_3
   30:	aload	4
   32:	invokespecial	#86; //Method gd3$1:(Lscala/Function2;Lscala/actors/AbstractActor;)Z
   35:	ifeq	51
   38:	aload_1
   39:	checkcast	#27; //class scala/actors/remote/LocalApply0
   42:	aload_0
   43:	invokeinterface	#90,  2; //InterfaceMethod scala/Equals.canEqual:(Ljava/lang/Object;)Z
   48:	goto	76
   51:	iconst_1
   52:	ifeq	59
   55:	iconst_0
   56:	goto	76
   59:	new	#78; //class scala/MatchError
   62:	dup
   63:	aload_1
   64:	invokevirtual	#73; //Method java/lang/Object.toString:()Ljava/lang/String;
   67:	invokespecial	#79; //Method scala/MatchError."<init>":(Ljava/lang/String;)V
   70:	athrow
   71:	iconst_1
   72:	ifeq	85
   75:	iconst_0
   76:	ifeq	83
   79:	iconst_1
   80:	goto	84
   83:	iconst_0
   84:	ireturn
   85:	new	#78; //class scala/MatchError
   88:	dup
   89:	aload_1
   90:	invokevirtual	#73; //Method java/lang/Object.toString:()Ljava/lang/String;
   93:	invokespecial	#79; //Method scala/MatchError."<init>":(Ljava/lang/String;)V
   96:	athrow
  LineNumberTable: 
   line 19: 0
   line 644: 51
   line 862: 55
   line 19: 59
   line 644: 71
   line 862: 75
   line 19: 76

  LocalVariableTable: 
   Start  Length  Slot  Name   Signature
   0      97      0    this       Lscala/actors/remote/LocalApply0;
   17      54      2    temp15       Lscala/actors/remote/LocalApply0;
   22      49      3    temp16       Lscala/Function2;
   28      43      4    temp17       Lscala/actors/AbstractActor;


public java.lang.String toString();
  Code:
   Stack=2, Locals=1, Args_size=1
   0:	getstatic	#98; //Field scala/runtime/ScalaRunTime$.MODULE$:Lscala/runtime/ScalaRunTime$;
   3:	aload_0
   4:	invokevirtual	#102; //Method scala/runtime/ScalaRunTime$._toString:(Lscala/Product;)Ljava/lang/String;
   7:	areturn
  LineNumberTable: 
   line 19: 0


public int hashCode();
  Code:
   Stack=2, Locals=1, Args_size=1
   0:	getstatic	#98; //Field scala/runtime/ScalaRunTime$.MODULE$:Lscala/runtime/ScalaRunTime$;
   3:	aload_0
   4:	invokevirtual	#107; //Method scala/runtime/ScalaRunTime$._hashCode:(Lscala/Product;)I
   7:	ireturn
  LineNumberTable: 
   line 19: 0


public scala.actors.remote.LocalApply0 copy(scala.Function2, scala.actors.AbstractActor);
  Code:
   Stack=4, Locals=3, Args_size=3
   0:	new	#27; //class scala/actors/remote/LocalApply0
   3:	dup
   4:	aload_1
   5:	aload_2
   6:	invokespecial	#111; //Method "<init>":(Lscala/Function2;Lscala/actors/AbstractActor;)V
   9:	areturn
  LineNumberTable: 
   line 19: 0

  LocalVariableTable: 
   Start  Length  Slot  Name   Signature
   0      10      0    this       Lscala/actors/remote/LocalApply0;
   0      10      1    rfun       Lscala/Function2;
   0      10      2    a       Lscala/actors/AbstractActor;


public scala.actors.AbstractActor a();
  Code:
   Stack=1, Locals=1, Args_size=1
   0:	aload_0
   1:	getfield	#31; //Field a:Lscala/actors/AbstractActor;
   4:	areturn
  LineNumberTable: 
   line 19: 0


public scala.Function2 rfun();
  Code:
   Stack=1, Locals=1, Args_size=1
   0:	aload_0
   1:	getfield	#29; //Field rfun:Lscala/Function2;
   4:	areturn
  LineNumberTable: 
   line 19: 0

  Signature: length = 0x2
   00 70 

public scala.Function2 copy$default$1();
  Code:
   Stack=1, Locals=1, Args_size=1
   0:	aload_0
   1:	invokevirtual	#51; //Method rfun:()Lscala/Function2;
   4:	areturn
  LineNumberTable: 
   line 19: 0


public scala.actors.AbstractActor copy$default$2();
  Code:
   Stack=1, Locals=1, Args_size=1
   0:	aload_0
   1:	invokevirtual	#58; //Method a:()Lscala/actors/AbstractActor;
   4:	areturn
  LineNumberTable: 
   line 19: 0


public scala.collection.Iterator productElements();
  Code:
   Stack=1, Locals=1, Args_size=1
   0:	aload_0
   1:	invokestatic	#119; //Method scala/Product$class.productElements:(Lscala/Product;)Lscala/collection/Iterator;
   4:	areturn
  LineNumberTable: 
   line 19: 0

  Deprecated: true

public scala.collection.Iterator productIterator();
  Code:
   Stack=1, Locals=1, Args_size=1
   0:	aload_0
   1:	invokestatic	#123; //Method scala/Product$class.productIterator:(Lscala/Product;)Lscala/collection/Iterator;
   4:	areturn
  LineNumberTable: 
   line 19: 0


}

