Compiled from "RemoteActor.scala"
public class scala.actors.remote.Node extends java.lang.Object implements scala.ScalaObject,scala.Product,java.io.Serializable
  SourceFile: "RemoteActor.scala"
  ScalaSig: length = 0x39C
   05 00 FFFFFF81 08 06 08 01 02 FFFFFF84 FFFFFF80 FFFFFF80 FFFFFF80 40 09 02 04
   4E 6F 64 65 0A 02 03 04 01 06 72 65 6D 6F 74 65
   0A 02 05 06 01 06 61 63 74 6F 72 73 0A 01 07 01
   05 73 63 61 6C 61 03 00 13 04 00 0A 12 16 10 02
   0B 10 0D 01 0C 0A 02 0D 0E 01 04 6C 61 6E 67 0A
   01 0F 01 04 6A 61 76 61 09 02 11 0C 02 06 4F 62
   6A 65 63 74 10 02 13 14 0D 01 06 09 02 15 06 02
   0B 53 63 61 6C 61 4F 62 6A 65 63 74 10 02 13 17
   09 02 18 06 02 07 50 72 6F 64 75 63 74 08 08 1A
   00 FFFFFF82 FFFFFFCA FFFFFF80 FFFFFF84 00 1B 01 07 61 64 64 72 65 73 73
   15 01 1C 10 02 1D 20 0E 02 13 1E 09 02 1F 06 01
   06 50 72 65 64 65 66 09 02 21 22 02 06 53 74 72
   69 6E 67 0A 02 1F 06 08 08 24 00 FFFFFF82 FFFFFF88 FFFFFFA0 FFFFFF80 04
   1C 01 08 61 64 64 72 65 73 73 20 08 08 26 00 FFFFFF82
   FFFFFFCA FFFFFF80 FFFFFF84 00 27 01 04 70 6F 72 74 15 01 28 10 02
   13 29 09 02 2A 06 02 03 49 6E 74 08 08 2C 00 FFFFFF82
   FFFFFF88 FFFFFFA0 FFFFFF80 04 28 01 05 70 6F 72 74 20 08 05 2E 00
   FFFFFF84 00 2F 01 06 3C 69 6E 69 74 3E 14 03 30 32 33
   10 02 31 00 0D 01 02 08 05 1A 2D FFFFFFC0 00 1C 08 05
   26 2D FFFFFFC0 00 28 08 07 35 00 FFFFFF81 FFFFFF80 FFFFFF84 00 36 01 04
   63 6F 70 79 14 03 30 37 45 08 08 38 1A 34 FFFFFF90 FFFFFF80
   FFFFFFC0 00 1C 08 07 39 00 FFFFFF91 FFFFFF80 FFFFFF84 00 3A 01 0E 63 6F
   70 79 24 64 65 66 61 75 6C 74 24 31 15 01 3B 2A
   02 1C 3C 2B 01 3D 10 02 3E 43 0D 01 3F 0A 02 40
   41 01 09 75 6E 63 68 65 63 6B 65 64 0A 02 42 06
   01 0A 61 6E 6E 6F 74 61 74 69 6F 6E 09 02 44 3F
   02 11 75 6E 63 68 65 63 6B 65 64 56 61 72 69 61
   6E 63 65 08 08 46 26 34 FFFFFF90 FFFFFF80 FFFFFFC0 00 28 08 07 47
   00 FFFFFF91 FFFFFF80 FFFFFF84 00 48 01 0E 63 6F 70 79 24 64 65 66
   61 75 6C 74 24 32 15 01 49 2A 02 28 3C 08 08 4B
   00 FFFFFF84 FFFFFF80 FFFFFF80 FFFFFF84 20 4C 01 08 68 61 73 68 43 6F 64
   65 14 01 28 08 08 4E 00 FFFFFF84 FFFFFF80 FFFFFF80 FFFFFF84 20 4F 01 08
   74 6F 53 74 72 69 6E 67 14 01 1C 08 08 51 00 FFFFFF84
   FFFFFF80 FFFFFF80 FFFFFF84 20 52 01 06 65 71 75 61 6C 73 14 02 53
   56 10 02 13 54 09 02 55 06 02 07 42 6F 6F 6C 65
   61 6E 08 07 57 50 FFFFFF81 FFFFFF80 FFFFFFC0 00 58 01 03 78 24 31
   10 02 13 59 09 02 5A 06 02 03 41 6E 79 08 08 5C
   00 FFFFFF84 FFFFFF80 FFFFFF80 FFFFFF84 20 5D 01 0D 70 72 6F 64 75 63 74
   50 72 65 66 69 78 15 01 5E 10 02 0B 5F 09 02 21
   0C 08 08 61 00 FFFFFF84 FFFFFF80 FFFFFF80 FFFFFF84 20 27 01 0C 70 72 6F
   64 75 63 74 41 72 69 74 79 08 08 63 00 FFFFFF84 FFFFFF80 FFFFFF80
   FFFFFF84 20 64 01 0E 70 72 6F 64 75 63 74 45 6C 65 6D
   65 6E 74 14 02 58 65 08 07 57 62 FFFFFF81 FFFFFF80 FFFFFFC0 00 28
   08 08 67 00 FFFFFF84 FFFFFF80 FFFFFF80 FFFFFF84 20 68 01 08 63 61 6E 45
   71 75 61 6C 14 02 53 69 08 07 57 66 FFFFFF81 FFFFFF80 FFFFFFC0 00
   58 28 02 00 6B 10 02 13 6C 09 02 6D 06 02 0C 73
   65 72 69 61 6C 69 7A 61 62 6C 65 07 07 6F 02 FFFFFF81
   FFFFFF80 FFFFFF88 02 70 01 04 4E 6F 64 65 10 02 31 71 06 08
   01 02 FFFFFF84 FFFFFF81 FFFFFF80 FFFFFF88 02 72 13 04 71 0A 73 12 10 05
   13 74 1C 28 30 09 02 75 06 02 09 46 75 6E 63 74
   69 6F 6E 32 08 05 2E 71 FFFFFF84 00 77 14 01 70 08 07
   79 71 FFFFFF81 FFFFFF80 FFFFFF84 40 7A 01 05 61 70 70 6C 79 14 03
   30 7B 7C 08 05 1A 78 FFFFFFC0 00 1C 08 05 26 78 FFFFFFC0 00
   28 08 07 7E 71 FFFFFF81 FFFFFF80 FFFFFF84 40 7F 01 07 75 6E 61 70
   70 6C 79 14 04 FFFFFF81 00 FFFFFF81 06 10 05 13 FFFFFF81 01 FFFFFF81 03
   09 03 FFFFFF81 02 06 02 04 53 6F 6D 65 10 05 13 FFFFFF81 04
   1C 28 09 03 FFFFFF81 05 06 02 06 54 75 70 6C 65 32 08
   06 FFFFFF81 07 7D FFFFFFC0 00 30 01 03 78 24 30 
  minor version: 0
  major version: 49
  Constant pool:
const #1 = Asciz	SourceFile;
const #2 = Asciz	RemoteActor.scala;
const #3 = Asciz	curry;
const #4 = Asciz	()Lscala/Function1;;
const #5 = Asciz	Code;
const #6 = Asciz	scala/actors/remote/Node$;
const #7 = class	#6;	//  scala/actors/remote/Node$
const #8 = Asciz	MODULE$;
const #9 = Asciz	Lscala/actors/remote/Node$;;
const #10 = NameAndType	#8:#9;//  MODULE$:Lscala/actors/remote/Node$;
const #11 = Field	#7.#10;	//  scala/actors/remote/Node$.MODULE$:Lscala/actors/remote/Node$;
const #12 = NameAndType	#3:#4;//  curry:()Lscala/Function1;
const #13 = Method	#7.#12;	//  scala/actors/remote/Node$.curry:()Lscala/Function1;
const #14 = Asciz	port;
const #15 = Asciz	I;
const #16 = Asciz	address;
const #17 = Asciz	Ljava/lang/String;;
const #18 = Asciz	<init>;
const #19 = Asciz	(Ljava/lang/String;I)V;
const #20 = Asciz	LineNumberTable;
const #21 = Asciz	scala/actors/remote/Node;
const #22 = class	#21;	//  scala/actors/remote/Node
const #23 = NameAndType	#16:#17;//  address:Ljava/lang/String;
const #24 = Field	#22.#23;	//  scala/actors/remote/Node.address:Ljava/lang/String;
const #25 = NameAndType	#14:#15;//  port:I
const #26 = Field	#22.#25;	//  scala/actors/remote/Node.port:I
const #27 = Asciz	java/lang/Object;
const #28 = class	#27;	//  java/lang/Object
const #29 = Asciz	()V;
const #30 = NameAndType	#18:#29;//  "<init>":()V
const #31 = Method	#28.#30;	//  java/lang/Object."<init>":()V
const #32 = Asciz	scala/Product$class;
const #33 = class	#32;	//  scala/Product$class
const #34 = Asciz	$init$;
const #35 = Asciz	(Lscala/Product;)V;
const #36 = NameAndType	#34:#35;//  $init$:(Lscala/Product;)V
const #37 = Method	#33.#36;	//  scala/Product$class.$init$:(Lscala/Product;)V
const #38 = Asciz	this;
const #39 = Asciz	Lscala/actors/remote/Node;;
const #40 = Asciz	LocalVariableTable;
const #41 = Asciz	gd1$1;
const #42 = Asciz	(Ljava/lang/String;I)Z;
const #43 = Asciz	()Ljava/lang/String;;
const #44 = NameAndType	#16:#43;//  address:()Ljava/lang/String;
const #45 = Method	#22.#44;	//  scala/actors/remote/Node.address:()Ljava/lang/String;
const #46 = Asciz	equals;
const #47 = Asciz	(Ljava/lang/Object;)Z;
const #48 = NameAndType	#46:#47;//  equals:(Ljava/lang/Object;)Z
const #49 = Method	#28.#48;	//  java/lang/Object.equals:(Ljava/lang/Object;)Z
const #50 = Asciz	()I;
const #51 = NameAndType	#14:#50;//  port:()I
const #52 = Method	#22.#51;	//  scala/actors/remote/Node.port:()I
const #53 = Asciz	canEqual;
const #54 = Asciz	productElement;
const #55 = Asciz	(I)Ljava/lang/Object;;
const #56 = Asciz	java/lang/IndexOutOfBoundsException;
const #57 = class	#56;	//  java/lang/IndexOutOfBoundsException
const #58 = Asciz	scala/runtime/BoxesRunTime;
const #59 = class	#58;	//  scala/runtime/BoxesRunTime
const #60 = Asciz	boxToInteger;
const #61 = Asciz	(I)Ljava/lang/Integer;;
const #62 = NameAndType	#60:#61;//  boxToInteger:(I)Ljava/lang/Integer;
const #63 = Method	#59.#62;	//  scala/runtime/BoxesRunTime.boxToInteger:(I)Ljava/lang/Integer;
const #64 = Asciz	toString;
const #65 = NameAndType	#64:#43;//  toString:()Ljava/lang/String;
const #66 = Method	#28.#65;	//  java/lang/Object.toString:()Ljava/lang/String;
const #67 = Asciz	(Ljava/lang/String;)V;
const #68 = NameAndType	#18:#67;//  "<init>":(Ljava/lang/String;)V
const #69 = Method	#57.#68;	//  java/lang/IndexOutOfBoundsException."<init>":(Ljava/lang/String;)V
const #70 = Asciz	scala/MatchError;
const #71 = class	#70;	//  scala/MatchError
const #72 = Method	#71.#68;	//  scala/MatchError."<init>":(Ljava/lang/String;)V
const #73 = Asciz	productArity;
const #74 = Asciz	productPrefix;
const #75 = Asciz	Node;
const #76 = String	#75;	//  Node
const #77 = NameAndType	#41:#42;//  gd1$1:(Ljava/lang/String;I)Z
const #78 = Method	#22.#77;	//  scala/actors/remote/Node.gd1$1:(Ljava/lang/String;I)Z
const #79 = Asciz	scala/Equals;
const #80 = class	#79;	//  scala/Equals
const #81 = NameAndType	#53:#47;//  canEqual:(Ljava/lang/Object;)Z
const #82 = InterfaceMethod	#80.#81;	//  scala/Equals.canEqual:(Ljava/lang/Object;)Z
const #83 = Asciz	temp10;
const #84 = Asciz	temp11;
const #85 = Asciz	temp12;
const #86 = Asciz	scala/runtime/ScalaRunTime$;
const #87 = class	#86;	//  scala/runtime/ScalaRunTime$
const #88 = Asciz	Lscala/runtime/ScalaRunTime$;;
const #89 = NameAndType	#8:#88;//  MODULE$:Lscala/runtime/ScalaRunTime$;
const #90 = Field	#87.#89;	//  scala/runtime/ScalaRunTime$.MODULE$:Lscala/runtime/ScalaRunTime$;
const #91 = Asciz	_toString;
const #92 = Asciz	(Lscala/Product;)Ljava/lang/String;;
const #93 = NameAndType	#91:#92;//  _toString:(Lscala/Product;)Ljava/lang/String;
const #94 = Method	#87.#93;	//  scala/runtime/ScalaRunTime$._toString:(Lscala/Product;)Ljava/lang/String;
const #95 = Asciz	hashCode;
const #96 = Asciz	_hashCode;
const #97 = Asciz	(Lscala/Product;)I;
const #98 = NameAndType	#96:#97;//  _hashCode:(Lscala/Product;)I
const #99 = Method	#87.#98;	//  scala/runtime/ScalaRunTime$._hashCode:(Lscala/Product;)I
const #100 = Asciz	copy;
const #101 = Asciz	(Ljava/lang/String;I)Lscala/actors/remote/Node;;
const #102 = NameAndType	#18:#19;//  "<init>":(Ljava/lang/String;I)V
const #103 = Method	#22.#102;	//  scala/actors/remote/Node."<init>":(Ljava/lang/String;I)V
const #104 = Asciz	copy$default$1;
const #105 = Asciz	copy$default$2;
const #106 = Asciz	productElements;
const #107 = Asciz	()Lscala/collection/Iterator;;
const #108 = Asciz	(Lscala/Product;)Lscala/collection/Iterator;;
const #109 = NameAndType	#106:#108;//  productElements:(Lscala/Product;)Lscala/collection/Iterator;
const #110 = Method	#33.#109;	//  scala/Product$class.productElements:(Lscala/Product;)Lscala/collection/Iterator;
const #111 = Asciz	productIterator;
const #112 = NameAndType	#111:#108;//  productIterator:(Lscala/Product;)Lscala/collection/Iterator;
const #113 = Method	#33.#112;	//  scala/Product$class.productIterator:(Lscala/Product;)Lscala/collection/Iterator;
const #114 = Asciz	ScalaSig;
const #115 = Asciz	scala/ScalaObject;
const #116 = class	#115;	//  scala/ScalaObject
const #117 = Asciz	scala/Product;
const #118 = class	#117;	//  scala/Product
const #119 = Asciz	java/io/Serializable;
const #120 = class	#119;	//  java/io/Serializable

{
public static final scala.Function1 curry();
  Code:
   Stack=1, Locals=0, Args_size=0
   0:	getstatic	#11; //Field scala/actors/remote/Node$.MODULE$:Lscala/actors/remote/Node$;
   3:	invokevirtual	#13; //Method scala/actors/remote/Node$.curry:()Lscala/Function1;
   6:	areturn

public scala.actors.remote.Node(java.lang.String, int);
  Code:
   Stack=2, Locals=3, Args_size=3
   0:	aload_0
   1:	aload_1
   2:	putfield	#24; //Field address:Ljava/lang/String;
   5:	aload_0
   6:	iload_2
   7:	putfield	#26; //Field port:I
   10:	aload_0
   11:	invokespecial	#31; //Method java/lang/Object."<init>":()V
   14:	aload_0
   15:	invokestatic	#37; //Method scala/Product$class.$init$:(Lscala/Product;)V
   18:	return
  LineNumberTable: 
   line 134: 0

  LocalVariableTable: 
   Start  Length  Slot  Name   Signature
   0      19      0    this       Lscala/actors/remote/Node;
   0      19      1    address       Ljava/lang/String;
   0      19      2    port       I


public boolean canEqual(java.lang.Object);
  Code:
   Stack=1, Locals=2, Args_size=2
   0:	aload_1
   1:	instanceof	#22; //class scala/actors/remote/Node
   4:	ireturn
  LineNumberTable: 
   line 134: 0


public java.lang.Object productElement(int);
  Code:
   Stack=3, Locals=3, Args_size=2
   0:	iload_1
   1:	tableswitch{ //0 to 1
		0: 89;
		1: 58;
		default: 24 }
   24:	iconst_1
   25:	ifeq	43
   28:	new	#57; //class java/lang/IndexOutOfBoundsException
   31:	dup
   32:	iload_1
   33:	invokestatic	#63; //Method scala/runtime/BoxesRunTime.boxToInteger:(I)Ljava/lang/Integer;
   36:	invokevirtual	#66; //Method java/lang/Object.toString:()Ljava/lang/String;
   39:	invokespecial	#69; //Method java/lang/IndexOutOfBoundsException."<init>":(Ljava/lang/String;)V
   42:	athrow
   43:	new	#71; //class scala/MatchError
   46:	dup
   47:	iload_1
   48:	invokestatic	#63; //Method scala/runtime/BoxesRunTime.boxToInteger:(I)Ljava/lang/Integer;
   51:	invokevirtual	#66; //Method java/lang/Object.toString:()Ljava/lang/String;
   54:	invokespecial	#72; //Method scala/MatchError."<init>":(Ljava/lang/String;)V
   57:	athrow
   58:	iconst_1
   59:	ifeq	74
   62:	aload_0
   63:	invokevirtual	#52; //Method port:()I
   66:	istore_2
   67:	iload_2
   68:	invokestatic	#63; //Method scala/runtime/BoxesRunTime.boxToInteger:(I)Ljava/lang/Integer;
   71:	goto	97
   74:	new	#71; //class scala/MatchError
   77:	dup
   78:	iload_1
   79:	invokestatic	#63; //Method scala/runtime/BoxesRunTime.boxToInteger:(I)Ljava/lang/Integer;
   82:	invokevirtual	#66; //Method java/lang/Object.toString:()Ljava/lang/String;
   85:	invokespecial	#72; //Method scala/MatchError."<init>":(Ljava/lang/String;)V
   88:	athrow
   89:	iconst_1
   90:	ifeq	98
   93:	aload_0
   94:	invokevirtual	#45; //Method address:()Ljava/lang/String;
   97:	areturn
   98:	new	#71; //class scala/MatchError
   101:	dup
   102:	iload_1
   103:	invokestatic	#63; //Method scala/runtime/BoxesRunTime.boxToInteger:(I)Ljava/lang/Integer;
   106:	invokevirtual	#66; //Method java/lang/Object.toString:()Ljava/lang/String;
   109:	invokespecial	#72; //Method scala/MatchError."<init>":(Ljava/lang/String;)V
   112:	athrow
  LineNumberTable: 
   line 134: 0
   line 644: 24
   line 134: 28
   line 644: 58
   line 134: 62
   line 644: 89
   line 134: 93


public int productArity();
  Code:
   Stack=1, Locals=1, Args_size=1
   0:	iconst_2
   1:	ireturn
  LineNumberTable: 
   line 134: 0


public java.lang.String productPrefix();
  Code:
   Stack=1, Locals=1, Args_size=1
   0:	ldc	#76; //String Node
   2:	areturn
  LineNumberTable: 
   line 134: 0


public boolean equals(java.lang.Object);
  Code:
   Stack=3, Locals=5, Args_size=2
   0:	aload_0
   1:	aload_1
   2:	if_acmpeq	79
   5:	aload_1
   6:	instanceof	#22; //class scala/actors/remote/Node
   9:	ifeq	71
   12:	aload_1
   13:	checkcast	#22; //class scala/actors/remote/Node
   16:	astore_2
   17:	aload_2
   18:	invokevirtual	#45; //Method address:()Ljava/lang/String;
   21:	astore_3
   22:	aload_2
   23:	invokevirtual	#52; //Method port:()I
   26:	istore	4
   28:	aload_0
   29:	aload_3
   30:	iload	4
   32:	invokespecial	#78; //Method gd1$1:(Ljava/lang/String;I)Z
   35:	ifeq	51
   38:	aload_1
   39:	checkcast	#22; //class scala/actors/remote/Node
   42:	aload_0
   43:	invokeinterface	#82,  2; //InterfaceMethod scala/Equals.canEqual:(Ljava/lang/Object;)Z
   48:	goto	76
   51:	iconst_1
   52:	ifeq	59
   55:	iconst_0
   56:	goto	76
   59:	new	#71; //class scala/MatchError
   62:	dup
   63:	aload_1
   64:	invokevirtual	#66; //Method java/lang/Object.toString:()Ljava/lang/String;
   67:	invokespecial	#72; //Method scala/MatchError."<init>":(Ljava/lang/String;)V
   70:	athrow
   71:	iconst_1
   72:	ifeq	85
   75:	iconst_0
   76:	ifeq	83
   79:	iconst_1
   80:	goto	84
   83:	iconst_0
   84:	ireturn
   85:	new	#71; //class scala/MatchError
   88:	dup
   89:	aload_1
   90:	invokevirtual	#66; //Method java/lang/Object.toString:()Ljava/lang/String;
   93:	invokespecial	#72; //Method scala/MatchError."<init>":(Ljava/lang/String;)V
   96:	athrow
  LineNumberTable: 
   line 134: 0
   line 644: 51
   line 862: 55
   line 134: 59
   line 644: 71
   line 862: 75
   line 134: 76

  LocalVariableTable: 
   Start  Length  Slot  Name   Signature
   0      97      0    this       Lscala/actors/remote/Node;
   17      54      2    temp10       Lscala/actors/remote/Node;
   22      49      3    temp11       Ljava/lang/String;
   28      43      4    temp12       I


public java.lang.String toString();
  Code:
   Stack=2, Locals=1, Args_size=1
   0:	getstatic	#90; //Field scala/runtime/ScalaRunTime$.MODULE$:Lscala/runtime/ScalaRunTime$;
   3:	aload_0
   4:	invokevirtual	#94; //Method scala/runtime/ScalaRunTime$._toString:(Lscala/Product;)Ljava/lang/String;
   7:	areturn
  LineNumberTable: 
   line 134: 0


public int hashCode();
  Code:
   Stack=2, Locals=1, Args_size=1
   0:	getstatic	#90; //Field scala/runtime/ScalaRunTime$.MODULE$:Lscala/runtime/ScalaRunTime$;
   3:	aload_0
   4:	invokevirtual	#99; //Method scala/runtime/ScalaRunTime$._hashCode:(Lscala/Product;)I
   7:	ireturn
  LineNumberTable: 
   line 134: 0


public scala.actors.remote.Node copy(java.lang.String, int);
  Code:
   Stack=4, Locals=3, Args_size=3
   0:	new	#22; //class scala/actors/remote/Node
   3:	dup
   4:	aload_1
   5:	iload_2
   6:	invokespecial	#103; //Method "<init>":(Ljava/lang/String;I)V
   9:	areturn
  LineNumberTable: 
   line 134: 0

  LocalVariableTable: 
   Start  Length  Slot  Name   Signature
   0      10      0    this       Lscala/actors/remote/Node;
   0      10      1    address       Ljava/lang/String;
   0      10      2    port       I


public int port();
  Code:
   Stack=1, Locals=1, Args_size=1
   0:	aload_0
   1:	getfield	#26; //Field port:I
   4:	ireturn
  LineNumberTable: 
   line 134: 0


public java.lang.String address();
  Code:
   Stack=1, Locals=1, Args_size=1
   0:	aload_0
   1:	getfield	#24; //Field address:Ljava/lang/String;
   4:	areturn
  LineNumberTable: 
   line 134: 0


public java.lang.String copy$default$1();
  Code:
   Stack=1, Locals=1, Args_size=1
   0:	aload_0
   1:	invokevirtual	#45; //Method address:()Ljava/lang/String;
   4:	areturn
  LineNumberTable: 
   line 134: 0


public int copy$default$2();
  Code:
   Stack=1, Locals=1, Args_size=1
   0:	aload_0
   1:	invokevirtual	#52; //Method port:()I
   4:	ireturn
  LineNumberTable: 
   line 134: 0


public scala.collection.Iterator productElements();
  Code:
   Stack=1, Locals=1, Args_size=1
   0:	aload_0
   1:	invokestatic	#110; //Method scala/Product$class.productElements:(Lscala/Product;)Lscala/collection/Iterator;
   4:	areturn
  LineNumberTable: 
   line 134: 0


public scala.collection.Iterator productIterator();
  Code:
   Stack=1, Locals=1, Args_size=1
   0:	aload_0
   1:	invokestatic	#113; //Method scala/Product$class.productIterator:(Lscala/Product;)Lscala/collection/Iterator;
   4:	areturn
  LineNumberTable: 
   line 134: 0


}

