Compiled from "RemoteActor.scala"
public class scala.actors.remote.Node extends java.lang.Object implements scala.ScalaObject,scala.Product,java.io.Serializable
  SourceFile: "RemoteActor.scala"
  ScalaSig: length = 0x3CB
   05 00 FFFFFF81 0C 06 08 01 02 FFFFFF84 FFFFFF80 FFFFFF80 FFFFFF80 40 09 02 04
   4E 6F 64 65 0A 02 03 04 01 06 72 65 6D 6F 74 65
   0A 02 05 06 01 06 61 63 74 6F 72 73 0A 01 07 01
   05 73 63 61 6C 61 03 00 13 04 00 0A 12 16 10 02
   0B 10 0D 01 0C 0A 02 0D 0E 01 04 6C 61 6E 67 0A
   01 0F 01 04 6A 61 76 61 09 02 11 0C 02 06 4F 62
   6A 65 63 74 10 02 13 14 0D 01 06 09 02 15 06 02
   0B 53 63 61 6C 61 4F 62 6A 65 63 74 10 02 13 17
   09 02 18 06 02 07 50 72 6F 64 75 63 74 08 08 1A
   00 FFFFFF82 FFFFFFCA FFFFFF80 FFFFFF84 00 1B 01 07 61 64 64 72 65 73 73
   15 01 1C 10 02 1D 20 0E 02 13 1E 09 02 1F 06 01
   06 50 72 65 64 65 66 09 02 21 22 02 06 53 74 72
   69 6E 67 0A 02 1F 06 08 08 24 00 FFFFFF82 FFFFFF88 FFFFFFA0 FFFFFF80 04
   1C 01 08 61 64 64 72 65 73 73 20 08 08 26 00 FFFFFF82
   FFFFFFCA FFFFFF80 FFFFFF84 00 27 01 04 70 6F 72 74 15 01 28 10 02
   13 29 09 02 2A 06 02 03 49 6E 74 08 08 2C 00 FFFFFF82
   FFFFFF88 FFFFFFA0 FFFFFF80 04 28 01 05 70 6F 72 74 20 08 05 2E 00
   FFFFFF84 00 2F 01 06 3C 69 6E 69 74 3E 14 03 30 32 33
   10 02 31 00 0D 01 02 08 05 1A 2D FFFFFFC0 00 1C 08 05
   26 2D FFFFFFC0 00 28 08 07 35 00 FFFFFF81 FFFFFF80 FFFFFF84 00 36 01 04
   63 6F 70 79 14 03 30 37 38 08 07 1A 34 FFFFFF90 FFFFFF80 FFFFFFC0
   00 1C 08 07 26 34 FFFFFF90 FFFFFF80 FFFFFFC0 00 28 08 07 3A 00 FFFFFF91
   FFFFFF80 FFFFFF84 00 3B 01 0E 63 6F 70 79 24 64 65 66 61 75
   6C 74 24 31 15 01 3C 2A 02 1C 3D 2B 01 3E 10 02
   3F 44 0D 01 40 0A 02 41 42 01 09 75 6E 63 68 65
   63 6B 65 64 0A 02 43 06 01 0A 61 6E 6E 6F 74 61
   74 69 6F 6E 09 02 45 40 02 11 75 6E 63 68 65 63
   6B 65 64 56 61 72 69 61 6E 63 65 08 07 47 00 FFFFFF91
   FFFFFF80 FFFFFF84 00 48 01 0E 63 6F 70 79 24 64 65 66 61 75
   6C 74 24 32 15 01 49 2A 02 28 3D 08 08 4B 00 FFFFFF84
   FFFFFF80 FFFFFF80 FFFFFF84 20 4C 01 08 68 61 73 68 43 6F 64 65 14
   01 28 08 08 4E 00 FFFFFF84 FFFFFF80 FFFFFF80 FFFFFF84 20 4F 01 08 74 6F
   53 74 72 69 6E 67 14 01 1C 08 08 51 00 FFFFFF84 FFFFFF80 FFFFFF80
   FFFFFF84 20 52 01 06 65 71 75 61 6C 73 14 02 53 56 10
   02 13 54 09 02 55 06 02 07 42 6F 6F 6C 65 61 6E
   08 07 57 50 FFFFFF81 FFFFFF80 FFFFFFC0 00 58 01 03 78 24 31 10 02
   13 59 09 02 5A 06 02 03 41 6E 79 08 08 5C 00 FFFFFF84
   FFFFFF80 FFFFFF80 FFFFFF84 20 5D 01 0D 70 72 6F 64 75 63 74 50 72
   65 66 69 78 15 01 5E 10 02 0B 5F 09 02 21 0C 08
   08 61 00 FFFFFF84 FFFFFF80 FFFFFF80 FFFFFF84 20 27 01 0C 70 72 6F 64 75
   63 74 41 72 69 74 79 08 08 63 00 FFFFFF84 FFFFFF80 FFFFFF80 FFFFFF84 20
   64 01 0E 70 72 6F 64 75 63 74 45 6C 65 6D 65 6E
   74 14 02 58 65 08 07 57 62 FFFFFF81 FFFFFF80 FFFFFFC0 00 28 08 08
   67 00 FFFFFF84 FFFFFF80 FFFFFF80 FFFFFF84 20 68 01 12 70 72 6F 64 75 63
   74 45 6C 65 6D 65 6E 74 4E 61 6D 65 14 02 5E 69
   08 07 57 66 FFFFFF81 FFFFFF80 FFFFFFC0 00 28 08 08 6B 00 FFFFFF84 FFFFFF80 FFFFFF80
   FFFFFF84 20 6C 01 08 63 61 6E 45 71 75 61 6C 14 02 53
   6D 08 07 57 6A FFFFFF81 FFFFFF80 FFFFFFC0 00 58 28 02 00 6F 10 02
   13 70 09 02 71 06 02 0C 73 65 72 69 61 6C 69 7A
   61 62 6C 65 07 07 73 02 FFFFFF81 FFFFFF80 FFFFFF88 02 74 01 04 4E
   6F 64 65 10 02 31 75 06 08 01 02 FFFFFF84 FFFFFF81 FFFFFF80 FFFFFF88 02
   76 13 04 75 0A 77 12 10 05 13 78 1C 28 30 09 02
   79 06 02 09 46 75 6E 63 74 69 6F 6E 32 08 05 2E
   75 FFFFFF84 00 7B 14 01 74 08 07 7D 75 FFFFFF81 FFFFFF80 FFFFFF84 40 7E
   01 05 61 70 70 6C 79 14 04 30 7F FFFFFF81 00 08 05 1A
   7C FFFFFFC0 00 1C 08 05 26 7C FFFFFFC0 00 28 08 09 FFFFFF81 02 75
   FFFFFF81 FFFFFF80 FFFFFF84 40 FFFFFF81 03 01 07 75 6E 61 70 70 6C 79 14
   04 FFFFFF81 04 FFFFFF81 0A 10 05 13 FFFFFF81 05 FFFFFF81 07 09 03 FFFFFF81 06
   06 02 06 4F 70 74 69 6F 6E 10 05 13 FFFFFF81 08 1C 28
   09 03 FFFFFF81 09 06 02 06 54 75 70 6C 65 32 08 07 FFFFFF81
   0B FFFFFF81 01 FFFFFFC0 00 30 01 03 78 24 30 
  minor version: 0
  major version: 49
  Constant pool:
Asciz	SourceFile;
Asciz	RemoteActor.scala;
Asciz	tupled;
Asciz	()Lscala/Function1;;
Asciz	Code;
Asciz	scala/actors/remote/Node$;
class	scala/actors/remote/Node$
Asciz	MODULE$;
Asciz	Lscala/actors/remote/Node$;;
NameAndType	MODULE$:Lscala/actors/remote/Node$;
Field	scala/actors/remote/Node$.MODULE$:Lscala/actors/remote/Node$;
NameAndType	tupled:()Lscala/Function1;
Method	scala/actors/remote/Node$.tupled:()Lscala/Function1;
Asciz	curry;
NameAndType	curry:()Lscala/Function1;
Method	scala/actors/remote/Node$.curry:()Lscala/Function1;
Asciz	Deprecated;
Asciz	curried;
NameAndType	curried:()Lscala/Function1;
Method	scala/actors/remote/Node$.curried:()Lscala/Function1;
Asciz	port;
Asciz	I;
Asciz	address;
Asciz	Ljava/lang/String;;
Asciz	productIterator;
Asciz	()Lscala/collection/Iterator;;
Asciz	LineNumberTable;
Asciz	scala/Product$class;
class	scala/Product$class
Asciz	(Lscala/Product;)Lscala/collection/Iterator;;
NameAndType	productIterator:(Lscala/Product;)Lscala/collection/Iterator;
Method	scala/Product$class.productIterator:(Lscala/Product;)Lscala/collection/Iterator;
Asciz	productElements;
NameAndType	productElements:(Lscala/Product;)Lscala/collection/Iterator;
Method	scala/Product$class.productElements:(Lscala/Product;)Lscala/collection/Iterator;
Asciz	copy$default$2;
Asciz	()I;
Asciz	scala/actors/remote/Node;
class	scala/actors/remote/Node
NameAndType	port:()I
Method	scala/actors/remote/Node.port:()I
Asciz	copy$default$1;
Asciz	()Ljava/lang/String;;
NameAndType	address:()Ljava/lang/String;
Method	scala/actors/remote/Node.address:()Ljava/lang/String;
NameAndType	address:Ljava/lang/String;
Field	scala/actors/remote/Node.address:Ljava/lang/String;
NameAndType	port:I
Field	scala/actors/remote/Node.port:I
Asciz	copy;
Asciz	(Ljava/lang/String;I)Lscala/actors/remote/Node;;
Asciz	<init>;
Asciz	(Ljava/lang/String;I)V;
NameAndType	"<init>":(Ljava/lang/String;I)V
Method	scala/actors/remote/Node."<init>":(Ljava/lang/String;I)V
Asciz	this;
Asciz	Lscala/actors/remote/Node;;
Asciz	LocalVariableTable;
Asciz	hashCode;
Asciz	scala/runtime/ScalaRunTime$;
class	scala/runtime/ScalaRunTime$
Asciz	Lscala/runtime/ScalaRunTime$;;
NameAndType	MODULE$:Lscala/runtime/ScalaRunTime$;
Field	scala/runtime/ScalaRunTime$.MODULE$:Lscala/runtime/ScalaRunTime$;
Asciz	_hashCode;
Asciz	(Lscala/Product;)I;
NameAndType	_hashCode:(Lscala/Product;)I
Method	scala/runtime/ScalaRunTime$._hashCode:(Lscala/Product;)I
Asciz	toString;
Asciz	_toString;
Asciz	(Lscala/Product;)Ljava/lang/String;;
NameAndType	_toString:(Lscala/Product;)Ljava/lang/String;
Method	scala/runtime/ScalaRunTime$._toString:(Lscala/Product;)Ljava/lang/String;
Asciz	equals;
Asciz	(Ljava/lang/Object;)Z;
Asciz	gd1$1;
Asciz	(Ljava/lang/String;I)Z;
NameAndType	gd1$1:(Ljava/lang/String;I)Z
Method	scala/actors/remote/Node.gd1$1:(Ljava/lang/String;I)Z
Asciz	scala/Equals;
class	scala/Equals
Asciz	canEqual;
NameAndType	canEqual:(Ljava/lang/Object;)Z
InterfaceMethod	scala/Equals.canEqual:(Ljava/lang/Object;)Z
Asciz	temp9;
Asciz	Ljava/lang/Object;;
Asciz	temp10;
Asciz	temp11;
Asciz	temp12;
Asciz	port$1;
Asciz	address$1;
Asciz	productPrefix;
Asciz	Node;
String	Node
Asciz	productArity;
Asciz	productElement;
Asciz	(I)Ljava/lang/Object;;
Asciz	java/lang/IndexOutOfBoundsException;
class	java/lang/IndexOutOfBoundsException
Asciz	scala/runtime/BoxesRunTime;
class	scala/runtime/BoxesRunTime
Asciz	boxToInteger;
Asciz	(I)Ljava/lang/Integer;;
NameAndType	boxToInteger:(I)Ljava/lang/Integer;
Method	scala/runtime/BoxesRunTime.boxToInteger:(I)Ljava/lang/Integer;
Asciz	java/lang/Object;
class	java/lang/Object
NameAndType	toString:()Ljava/lang/String;
Method	java/lang/Object.toString:()Ljava/lang/String;
Asciz	(Ljava/lang/String;)V;
NameAndType	"<init>":(Ljava/lang/String;)V
Method	java/lang/IndexOutOfBoundsException."<init>":(Ljava/lang/String;)V
Asciz	temp13;
Asciz	productElementName;
Asciz	(I)Ljava/lang/String;;
String	port
String	address
Asciz	temp14;
NameAndType	equals:(Ljava/lang/Object;)Z
Method	java/lang/Object.equals:(Ljava/lang/Object;)Z
Asciz	()V;
NameAndType	"<init>":()V
Method	java/lang/Object."<init>":()V
Asciz	$init$;
Asciz	(Lscala/Product;)V;
NameAndType	$init$:(Lscala/Product;)V
Method	scala/Product$class.$init$:(Lscala/Product;)V
Asciz	ScalaSig;
Asciz	scala/ScalaObject;
class	scala/ScalaObject
Asciz	scala/Product;
class	scala/Product
Asciz	java/io/Serializable;
class	java/io/Serializable

{
private final int port;
  Signature: I

private final java.lang.String address;
  Signature: Ljava/lang/String;

public static final scala.Function1 tupled();
  Signature: ()Lscala/Function1;
  Code:
   Stack=1, Locals=0, Args_size=0
	getstatic	Field scala/actors/remote/Node$.MODULE$:Lscala/actors/remote/Node$;
	invokevirtual	Method scala/actors/remote/Node$.tupled:()Lscala/Function1;
	areturn
  Labels:

public static final scala.Function1 curry();
  Signature: ()Lscala/Function1;
  Code:
   Stack=1, Locals=0, Args_size=0
	getstatic	Field scala/actors/remote/Node$.MODULE$:Lscala/actors/remote/Node$;
	invokevirtual	Method scala/actors/remote/Node$.curry:()Lscala/Function1;
	areturn
  Labels:
  Deprecated: true

public static final scala.Function1 curried();
  Signature: ()Lscala/Function1;
  Code:
   Stack=1, Locals=0, Args_size=0
	getstatic	Field scala/actors/remote/Node$.MODULE$:Lscala/actors/remote/Node$;
	invokevirtual	Method scala/actors/remote/Node$.curried:()Lscala/Function1;
	areturn
  Labels:

public scala.collection.Iterator productIterator();
  Signature: ()Lscala/collection/Iterator;
  Code:
   Stack=1, Locals=1, Args_size=1
	aload_0
	invokestatic	Method scala/Product$class.productIterator:(Lscala/Product;)Lscala/collection/Iterator;
	areturn
  Labels:

public scala.collection.Iterator productElements();
  Signature: ()Lscala/collection/Iterator;
  Code:
   Stack=1, Locals=1, Args_size=1
	aload_0
	invokestatic	Method scala/Product$class.productElements:(Lscala/Product;)Lscala/collection/Iterator;
	areturn
  Labels:
  Deprecated: true

public int copy$default$2();
  Signature: ()I
  Code:
   Stack=1, Locals=1, Args_size=1
	aload_0
	invokevirtual	Method port:()I
	ireturn
  Labels:

public java.lang.String copy$default$1();
  Signature: ()Ljava/lang/String;
  Code:
   Stack=1, Locals=1, Args_size=1
	aload_0
	invokevirtual	Method address:()Ljava/lang/String;
	areturn
  Labels:

public java.lang.String address();
  Signature: ()Ljava/lang/String;
  Code:
   Stack=1, Locals=1, Args_size=1
	aload_0
	getfield	Field address:Ljava/lang/String;
	areturn
  Labels:

public int port();
  Signature: ()I
  Code:
   Stack=1, Locals=1, Args_size=1
	aload_0
	getfield	Field port:I
	ireturn
  Labels:

public scala.actors.remote.Node copy(java.lang.String, int);
  Signature: (Ljava/lang/String;I)Lscala/actors/remote/Node;
  Code:
   Stack=4, Locals=3, Args_size=3
	new	class scala/actors/remote/Node
	dup
	aload_1
	iload_2
	invokespecial	Method "<init>":(Ljava/lang/String;I)V
	areturn
  Labels:
  LocalVariableTable: 
   Start  Length  Slot  Name   Signature
   0      10      0    this       Lscala/actors/remote/Node;
   0      10      1    address       Ljava/lang/String;
   0      10      2    port       I


public int hashCode();
  Signature: ()I
  Code:
   Stack=2, Locals=1, Args_size=1
	getstatic	Field scala/runtime/ScalaRunTime$.MODULE$:Lscala/runtime/ScalaRunTime$;
	aload_0
	invokevirtual	Method scala/runtime/ScalaRunTime$._hashCode:(Lscala/Product;)I
	ireturn
  Labels:

public java.lang.String toString();
  Signature: ()Ljava/lang/String;
  Code:
   Stack=2, Locals=1, Args_size=1
	getstatic	Field scala/runtime/ScalaRunTime$.MODULE$:Lscala/runtime/ScalaRunTime$;
	aload_0
	invokevirtual	Method scala/runtime/ScalaRunTime$._toString:(Lscala/Product;)Ljava/lang/String;
	areturn
  Labels:

public boolean equals(java.lang.Object);
  Signature: (Ljava/lang/Object;)Z
  Code:
   Stack=3, Locals=8, Args_size=2
	aload_0
	aload_1
	if_acmpeq	l1 // iconst_1
	aload_1
	astore_2
	aload_2
	instanceof	class scala/actors/remote/Node
	ifeq	l2 // iconst_0
	aload_2
	checkcast	class scala/actors/remote/Node
	astore_3
	aload_3
	invokevirtual	Method address:()Ljava/lang/String;
	astore	4
	aload_3
	invokevirtual	Method port:()I
	istore	5
	iload	5
	istore	6
	aload	4
	astore	7
	aload_0
	aload	7
	iload	6
	invokespecial	Method gd1$1:(Ljava/lang/String;I)Z
	ifeq	l3 // iconst_0
	aload_1
	checkcast	class scala/actors/remote/Node
	aload_0
	invokeinterface	InterfaceMethod scala/Equals.canEqual:(Ljava/lang/Object;)Z
	goto	l4 // ifeq
l3	iconst_0
	goto	l4 // ifeq
l2	iconst_0
l4	ifeq	l5 // iconst_0
l1	iconst_1
	goto	l6 // ireturn
l5	iconst_0
l6	ireturn
  Labels:
   	l3 = 63 // iconst_0
   	l2 = 67 // iconst_0
   	l4 = 68 // ifeq
   	l1 = 71 // iconst_1
   	l5 = 75 // iconst_0
   	l6 = 76 // ireturn
  LocalVariableTable: 
   Start  Length  Slot  Name   Signature
   0      77      0    this       Lscala/actors/remote/Node;
   7      64      2    temp9       Ljava/lang/Object;
   19      48      3    temp10       Lscala/actors/remote/Node;
   25      42      4    temp11       Ljava/lang/String;
   31      36      5    temp12       I
   35      32      6    port$1       I
   39      28      7    address$1       Ljava/lang/String;


public java.lang.String productPrefix();
  Signature: ()Ljava/lang/String;
  Code:
   Stack=1, Locals=1, Args_size=1
	ldc	String Node
	areturn
  Labels:

public int productArity();
  Signature: ()I
  Code:
   Stack=1, Locals=1, Args_size=1
	iconst_2
	ireturn
  Labels:

public java.lang.Object productElement(int);
  Signature: (I)Ljava/lang/Object;
  Code:
   Stack=3, Locals=3, Args_size=2
	iload_1
	istore_2
	iload_2
	tableswitch{ //0 to 1
		0: 49;
		1: 39;
		default: 24 }
	new	class java/lang/IndexOutOfBoundsException
	dup
	iload_1
	invokestatic	Method scala/runtime/BoxesRunTime.boxToInteger:(I)Ljava/lang/Integer;
	invokevirtual	Method java/lang/Object.toString:()Ljava/lang/String;
	invokespecial	Method java/lang/IndexOutOfBoundsException."<init>":(Ljava/lang/String;)V
	athrow
	aload_0
	invokevirtual	Method port:()I
	invokestatic	Method scala/runtime/BoxesRunTime.boxToInteger:(I)Ljava/lang/Integer;
	goto	l1 // areturn
	aload_0
	invokevirtual	Method address:()Ljava/lang/String;
l1	areturn
  Labels:
   	l1 = 53 // areturn
  LocalVariableTable: 
   Start  Length  Slot  Name   Signature
   0      54      0    this       Lscala/actors/remote/Node;
   2      52      2    temp13       I


public java.lang.String productElementName(int);
  Signature: (I)Ljava/lang/String;
  Code:
   Stack=3, Locals=3, Args_size=2
	iload_1
	istore_2
	iload_2
	tableswitch{ //0 to 1
		0: 44;
		1: 39;
		default: 24 }
	new	class java/lang/IndexOutOfBoundsException
	dup
	iload_1
	invokestatic	Method scala/runtime/BoxesRunTime.boxToInteger:(I)Ljava/lang/Integer;
	invokevirtual	Method java/lang/Object.toString:()Ljava/lang/String;
	invokespecial	Method java/lang/IndexOutOfBoundsException."<init>":(Ljava/lang/String;)V
	athrow
	ldc	String port
	goto	l1 // areturn
	ldc	String address
l1	areturn
  Labels:
   	l1 = 46 // areturn
  LocalVariableTable: 
   Start  Length  Slot  Name   Signature
   0      47      0    this       Lscala/actors/remote/Node;
   2      45      2    temp14       I


public boolean canEqual(java.lang.Object);
  Signature: (Ljava/lang/Object;)Z
  Code:
   Stack=1, Locals=2, Args_size=2
	aload_1
	instanceof	class scala/actors/remote/Node
	ireturn
  Labels:

private final boolean gd1$1(java.lang.String, int);
  Signature: (Ljava/lang/String;I)Z
  Code:
   Stack=2, Locals=4, Args_size=3
	aload_1
	aload_0
	invokevirtual	Method address:()Ljava/lang/String;
	astore_3
	dup
	ifnonnull	l1 // aload_3
	pop
	aload_3
	ifnull	l2 // iload_2
	goto	l3 // iconst_0
l1	aload_3
	invokevirtual	Method java/lang/Object.equals:(Ljava/lang/Object;)Z
	ifeq	l3 // iconst_0
l2	iload_2
	aload_0
	invokevirtual	Method port:()I
	if_icmpne	l3 // iconst_0
	iconst_1
	goto	l4 // ireturn
l3	iconst_0
l4	ireturn
  Labels:
   	l1 = 18 // aload_3
   	l2 = 25 // iload_2
   	l3 = 37 // iconst_0
   	l4 = 38 // ireturn

public scala.actors.remote.Node(java.lang.String, int);
  Signature: (Ljava/lang/String;I)V
  Code:
   Stack=2, Locals=3, Args_size=3
	aload_0
	aload_1
	putfield	Field address:Ljava/lang/String;
	aload_0
	iload_2
	putfield	Field port:I
	aload_0
	invokespecial	Method java/lang/Object."<init>":()V
	aload_0
	invokestatic	Method scala/Product$class.$init$:(Lscala/Product;)V
	return
  Labels:
  LocalVariableTable: 
   Start  Length  Slot  Name   Signature
   0      19      0    this       Lscala/actors/remote/Node;
   0      19      1    address       Ljava/lang/String;
   0      19      2    port       I


}

