Compiled from "Proxy.scala"
public class scala.actors.remote.Proxy extends java.lang.Object implements scala.actors.AbstractActor,scala.ScalaObject,java.io.Serializable
  SourceFile: "Proxy.scala"
  ScalaSig: length = 0x5BE
   05 00 FFFFFF81 56 06 09 01 02 FFFFFF84 FFFFFF80 FFFFFF80 FFFFFF80 00 02 08 02
   05 50 72 6F 78 79 0A 02 03 04 01 06 72 65 6D 6F
   74 65 0A 02 05 06 01 06 61 63 74 6F 72 73 0A 01
   07 01 05 73 63 61 6C 61 13 04 00 09 11 15 10 02
   0A 0F 0D 01 0B 0A 02 0C 0D 01 04 6C 61 6E 67 0A
   01 0E 01 04 6A 61 76 61 09 02 10 0B 02 06 4F 62
   6A 65 63 74 10 02 12 13 0D 01 04 09 02 14 04 02
   0D 41 62 73 74 72 61 63 74 41 63 74 6F 72 10 02
   16 17 0D 01 06 09 02 18 06 02 0B 53 63 61 6C 61
   4F 62 6A 65 63 74 08 08 1A 00 FFFFFF82 FFFFFF80 FFFFFFA0 FFFFFF80 04 1C
   01 04 6E 6F 64 65 03 00 10 02 1D 1E 0D 01 02 09
   02 1F 02 02 04 4E 6F 64 65 08 08 21 00 FFFFFF82 FFFFFF80 FFFFFFA0
   FFFFFF80 04 22 01 04 6E 61 6D 65 10 02 16 23 09 02 24
   06 02 06 53 79 6D 62 6F 6C 08 08 26 00 FFFFFF82 FFFFFFC0 FFFFFF80
   FFFFFF84 00 27 01 06 6B 65 72 6E 65 6C 15 01 28 10 02
   1D 29 09 02 2A 02 02 09 4E 65 74 4B 65 72 6E 65
   6C 08 08 2C 00 FFFFFF82 FFFFFFC0 FFFFFF80 FFFFFF84 00 2D 01 0A 6B 65 72
   6E 65 6C 5F 24 65 71 14 02 2E 31 10 02 16 2F 09
   02 30 06 02 04 55 6E 69 74 08 07 32 2B FFFFFF81 FFFFFF80 FFFFFFC0
   00 28 01 03 78 24 31 08 08 34 00 FFFFFF82 FFFFFF80 FFFFFFA0 FFFFFFA0 04
   28 01 07 6B 65 72 6E 65 6C 20 28 02 33 36 10 02
   16 37 09 02 38 06 02 09 74 72 61 6E 73 69 65 6E
   74 08 05 3A 00 FFFFFF84 00 3B 01 06 3C 69 6E 69 74 3E
   14 04 3C 3D 3E 3F 10 02 1D 00 08 05 1A 39 FFFFFFC0 00
   1C 08 05 21 39 FFFFFFC0 00 22 08 05 26 39 FFFFFFC0 00 28 05
   04 41 00 00 42 02 06 46 75 74 75 72 65 15 02 43
   47 10 03 12 44 45 09 02 41 04 10 02 46 47 0C 00
   04 08 48 40 FFFFFF84 FFFFFF80 FFFFFF84 FFFFFFC2 00 49 02 01 52 11 02 4A
   4D 10 02 16 4B 09 02 4C 06 02 07 4E 6F 74 68 69
   6E 67 10 02 16 4E 09 02 4F 06 02 03 41 6E 79 08
   08 51 00 FFFFFFC0 FFFFFF80 FFFFFF84 00 02 52 01 03 64 65 6C 15 01
   53 10 02 12 54 09 02 55 04 02 05 41 63 74 6F 72
   08 08 57 00 FFFFFFC0 FFFFFF80 FFFFFF84 00 02 58 01 07 64 65 6C 5F
   24 65 71 14 02 2E 59 08 07 32 56 FFFFFF81 FFFFFF80 FFFFFFC0 00 53
   08 06 5B 00 FFFFFFA0 FFFFFFA0 04 53 01 04 64 65 6C 20 28 02
   5A 36 08 05 5E 00 FFFFFF84 04 5F 01 0B 77 72 69 74 65
   4F 62 6A 65 63 74 14 02 2E 60 08 05 61 5D FFFFFFC0 00
   62 01 03 6F 75 74 10 02 63 66 0D 01 64 0A 02 65
   0D 01 02 69 6F 09 02 67 64 02 12 4F 62 6A 65 63
   74 4F 75 74 70 75 74 53 74 72 65 61 6D 28 03 5D
   69 6C 10 02 16 6A 09 02 6B 06 02 06 74 68 72 6F
   77 73 23 01 6D 10 02 63 6E 09 02 6F 64 02 0B 49
   4F 45 78 63 65 70 74 69 6F 6E 08 05 71 00 FFFFFF84 04
   72 01 0A 72 65 61 64 4F 62 6A 65 63 74 14 02 2E
   73 08 05 74 70 FFFFFFC0 00 75 01 02 69 6E 10 02 63 76
   09 02 77 64 02 11 4F 62 6A 65 63 74 49 6E 70 75
   74 53 74 72 65 61 6D 28 03 70 69 6C 28 03 70 69
   7A 23 01 7B 10 02 0A 7C 09 02 7D 0B 02 16 43 6C
   61 73 73 4E 6F 74 46 6F 75 6E 64 45 78 63 65 70
   74 69 6F 6E 08 06 7F 00 FFFFFF84 04 FFFFFF81 00 01 0D 73 74
   61 72 74 44 65 6C 65 67 61 74 65 14 01 2E 08 07
   FFFFFF81 02 00 FFFFFF84 04 FFFFFF81 00 01 0B 73 65 74 75 70 4B 65
   72 6E 65 6C 08 07 FFFFFF81 04 00 FFFFFF84 00 FFFFFF81 05 01 05 24
   62 61 6E 67 14 03 2E FFFFFF81 06 08 07 FFFFFF81 07 FFFFFF81 03 FFFFFFC0
   00 4D 01 03 6D 73 67 08 07 FFFFFF81 09 00 FFFFFF84 00 FFFFFF81 0A
   01 04 73 65 6E 64 14 05 2E FFFFFF81 0B FFFFFF81 0C 08 07 FFFFFF81
   07 FFFFFF81 08 FFFFFFC0 00 4D 08 08 FFFFFF81 0D FFFFFF81 08 FFFFFFC0 00 FFFFFF81 0E
   01 07 72 65 70 6C 79 43 68 10 04 12 FFFFFF81 0F 4D 09
   03 FFFFFF81 10 04 02 0D 4F 75 74 70 75 74 43 68 61 6E
   6E 65 6C 08 07 FFFFFF81 12 00 FFFFFF84 00 FFFFFF81 13 01 07 66 6F
   72 77 61 72 64 14 03 2E FFFFFF81 14 08 07 FFFFFF81 07 FFFFFF81 11
   FFFFFFC0 00 4D 08 06 FFFFFF81 16 00 FFFFFF84 00 52 01 08 72 65 63
   65 69 76 65 72 08 07 FFFFFF81 18 00 FFFFFF84 00 FFFFFF81 19 01 0B
   24 62 61 6E 67 24 71 6D 61 72 6B 14 03 4D FFFFFF81 1A
   08 07 FFFFFF81 07 FFFFFF81 17 FFFFFFC0 00 4D 08 07 FFFFFF81 18 00 FFFFFF84 00
   FFFFFF81 1C 14 06 FFFFFF81 1D FFFFFF81 20 FFFFFF81 25 10 04 16 FFFFFF81 1E 4D
   09 03 FFFFFF81 1F 06 02 06 4F 70 74 69 6F 6E 08 08 FFFFFF81
   21 FFFFFF81 1B FFFFFFC0 00 FFFFFF81 22 01 04 6D 73 65 63 10 03 16
   FFFFFF81 23 09 03 FFFFFF81 24 06 02 04 4C 6F 6E 67 08 07 FFFFFF81
   07 FFFFFF81 1B FFFFFFC0 00 4D 08 07 FFFFFF81 27 00 FFFFFF84 20 FFFFFF81 28 01
   0A 24 62 61 6E 67 24 62 61 6E 67 14 04 FFFFFF81 29 FFFFFF81
   2B 10 04 FFFFFF81 2A 40 4D 0D 01 00 08 07 FFFFFF81 07 FFFFFF81 26
   FFFFFFC0 00 4D 08 07 FFFFFF81 27 00 FFFFFF84 20 FFFFFF81 2D 15 04 FFFFFF81 2E
   FFFFFF81 31 14 06 FFFFFF81 2F FFFFFF81 33 FFFFFF81 34 10 05 FFFFFF81 2A 40 FFFFFF81
   30 10 03 46 FFFFFF81 31 04 0A FFFFFF81 32 FFFFFF81 2C FFFFFF84 FFFFFF80 FFFFFF80 FFFFFFC2
   00 49 02 01 41 08 07 FFFFFF81 07 FFFFFF81 2C FFFFFFC0 00 4D 08 08
   FFFFFF81 35 FFFFFF81 2C FFFFFFC0 00 FFFFFF81 36 01 01 66 10 06 16 FFFFFF81 37
   4D FFFFFF81 30 09 03 FFFFFF81 38 06 02 0F 50 61 72 74 69 61
   6C 46 75 6E 63 74 69 6F 6E 08 07 FFFFFF81 3A 00 FFFFFF84 00
   FFFFFF81 3B 01 06 6C 69 6E 6B 54 6F 14 03 2E FFFFFF81 3C 08
   07 FFFFFF81 3D FFFFFF81 39 FFFFFFC0 00 11 01 02 74 6F 08 07 FFFFFF81 3F
   00 FFFFFF84 00 FFFFFF81 40 01 0A 75 6E 6C 69 6E 6B 46 72 6F
   6D 14 03 2E FFFFFF81 41 08 07 FFFFFF81 42 FFFFFF81 3E FFFFFFC0 00 11 01
   04 66 72 6F 6D 08 07 FFFFFF81 44 00 FFFFFF84 00 FFFFFF81 45 01 04
   65 78 69 74 14 05 2E FFFFFF81 46 FFFFFF81 47 08 07 FFFFFF81 42 FFFFFF81
   43 FFFFFFC0 00 11 08 08 FFFFFF81 48 FFFFFF81 43 FFFFFFC0 00 FFFFFF81 49 01 06
   72 65 61 73 6F 6E 10 03 16 FFFFFF81 4A 09 03 FFFFFF81 4B 06
   02 06 41 6E 79 52 65 66 08 07 FFFFFF81 4D 00 FFFFFF84 20 FFFFFF81
   4E 01 08 74 6F 53 74 72 69 6E 67 14 02 FFFFFF81 4F 10
   03 0A FFFFFF81 50 09 03 FFFFFF81 51 0B 02 06 53 74 72 69 6E
   67 28 03 00 FFFFFF81 53 10 03 16 FFFFFF81 54 09 03 FFFFFF81 55 06
   02 0C 73 65 72 69 61 6C 69 7A 61 62 6C 65 
  minor version: 0
  major version: 49
  Constant pool:
const #1 = Asciz	SourceFile;
const #2 = Asciz	Proxy.scala;
const #3 = Asciz	exiting;
const #4 = Asciz	Z;
const #5 = Asciz	del;
const #6 = Asciz	Lscala/actors/Actor;;
const #7 = Asciz	kernel;
const #8 = Asciz	Lscala/actors/remote/NetKernel;;
const #9 = Asciz	name;
const #10 = Asciz	Lscala/Symbol;;
const #11 = Asciz	node;
const #12 = Asciz	Lscala/actors/remote/Node;;
const #13 = Asciz	<init>;
const #14 = Asciz	(Lscala/actors/remote/Node;Lscala/Symbol;Lscala/actors/remote/NetKernel;)V;
const #15 = Asciz	Code;
const #16 = Asciz	LineNumberTable;
const #17 = Asciz	scala/actors/remote/Proxy;
const #18 = class	#17;	//  scala/actors/remote/Proxy
const #19 = NameAndType	#11:#12;//  node:Lscala/actors/remote/Node;
const #20 = Field	#18.#19;	//  scala/actors/remote/Proxy.node:Lscala/actors/remote/Node;
const #21 = NameAndType	#9:#10;//  name:Lscala/Symbol;
const #22 = Field	#18.#21;	//  scala/actors/remote/Proxy.name:Lscala/Symbol;
const #23 = NameAndType	#7:#8;//  kernel:Lscala/actors/remote/NetKernel;
const #24 = Field	#18.#23;	//  scala/actors/remote/Proxy.kernel:Lscala/actors/remote/NetKernel;
const #25 = Asciz	java/lang/Object;
const #26 = class	#25;	//  java/lang/Object
const #27 = Asciz	()V;
const #28 = NameAndType	#13:#27;//  "<init>":()V
const #29 = Method	#26.#28;	//  java/lang/Object."<init>":()V
const #30 = Asciz	scala/actors/Replyable$class;
const #31 = class	#30;	//  scala/actors/Replyable$class
const #32 = Asciz	$init$;
const #33 = Asciz	(Lscala/actors/Replyable;)V;
const #34 = NameAndType	#32:#33;//  $init$:(Lscala/actors/Replyable;)V
const #35 = Method	#31.#34;	//  scala/actors/Replyable$class.$init$:(Lscala/actors/Replyable;)V
const #36 = Asciz	scala/actors/AbstractActor$class;
const #37 = class	#36;	//  scala/actors/AbstractActor$class
const #38 = Asciz	(Lscala/actors/AbstractActor;)V;
const #39 = NameAndType	#32:#38;//  $init$:(Lscala/actors/AbstractActor;)V
const #40 = Method	#37.#39;	//  scala/actors/AbstractActor$class.$init$:(Lscala/actors/AbstractActor;)V
const #41 = NameAndType	#5:#6;//  del:Lscala/actors/Actor;
const #42 = Field	#18.#41;	//  scala/actors/remote/Proxy.del:Lscala/actors/Actor;
const #43 = Asciz	startDelegate;
const #44 = NameAndType	#43:#27;//  startDelegate:()V
const #45 = Method	#18.#44;	//  scala/actors/remote/Proxy.startDelegate:()V
const #46 = Asciz	this;
const #47 = Asciz	Lscala/actors/remote/Proxy;;
const #48 = Asciz	LocalVariableTable;
const #49 = Asciz	$bang$bang;
const #50 = Asciz	(Ljava/lang/Object;)Lscala/Function0;;
const #51 = Asciz	(Ljava/lang/Object;)Lscala/actors/Future;;
const #52 = NameAndType	#49:#51;//  $bang$bang:(Ljava/lang/Object;)Lscala/actors/Future;
const #53 = Method	#18.#52;	//  scala/actors/remote/Proxy.$bang$bang:(Ljava/lang/Object;)Lscala/actors/Future;
const #54 = Asciz	msg;
const #55 = Asciz	Ljava/lang/Object;;
const #56 = Asciz	(Ljava/lang/Object;Lscala/PartialFunction;)Lscala/Function0;;
const #57 = Asciz	(Ljava/lang/Object;Lscala/PartialFunction;)Lscala/actors/Future;;
const #58 = NameAndType	#49:#57;//  $bang$bang:(Ljava/lang/Object;Lscala/PartialFunction;)Lscala/actors/Future;
const #59 = Method	#18.#58;	//  scala/actors/remote/Proxy.$bang$bang:(Ljava/lang/Object;Lscala/PartialFunction;)Lscala/actors/Future;
const #60 = Asciz	f;
const #61 = Asciz	Lscala/PartialFunction;;
const #62 = Asciz	toString;
const #63 = Asciz	()Ljava/lang/String;;
const #64 = Asciz	scala/collection/mutable/StringBuilder;
const #65 = class	#64;	//  scala/collection/mutable/StringBuilder
const #66 = Method	#65.#28;	//  scala/collection/mutable/StringBuilder."<init>":()V
const #67 = Asciz	scala/Predef$;
const #68 = class	#67;	//  scala/Predef$
const #69 = Asciz	MODULE$;
const #70 = Asciz	Lscala/Predef$;;
const #71 = NameAndType	#69:#70;//  MODULE$:Lscala/Predef$;
const #72 = Field	#68.#71;	//  scala/Predef$.MODULE$:Lscala/Predef$;
const #73 = Asciz	any2stringadd;
const #74 = Asciz	(Ljava/lang/Object;)Lscala/runtime/StringAdd;;
const #75 = NameAndType	#73:#74;//  any2stringadd:(Ljava/lang/Object;)Lscala/runtime/StringAdd;
const #76 = Method	#68.#75;	//  scala/Predef$.any2stringadd:(Ljava/lang/Object;)Lscala/runtime/StringAdd;
const #77 = Asciz	@;
const #78 = String	#77;	//  @
const #79 = Asciz	scala/runtime/StringAdd;
const #80 = class	#79;	//  scala/runtime/StringAdd
const #81 = Asciz	$plus;
const #82 = Asciz	(Ljava/lang/String;)Ljava/lang/String;;
const #83 = NameAndType	#81:#82;//  $plus:(Ljava/lang/String;)Ljava/lang/String;
const #84 = Method	#80.#83;	//  scala/runtime/StringAdd.$plus:(Ljava/lang/String;)Ljava/lang/String;
const #85 = Asciz	append;
const #86 = Asciz	(Ljava/lang/Object;)Lscala/collection/mutable/StringBuilder;;
const #87 = NameAndType	#85:#86;//  append:(Ljava/lang/Object;)Lscala/collection/mutable/StringBuilder;
const #88 = Method	#65.#87;	//  scala/collection/mutable/StringBuilder.append:(Ljava/lang/Object;)Lscala/collection/mutable/StringBuilder;
const #89 = NameAndType	#62:#63;//  toString:()Ljava/lang/String;
const #90 = Method	#65.#89;	//  scala/collection/mutable/StringBuilder.toString:()Ljava/lang/String;
const #91 = Asciz	exit;
const #92 = Asciz	(Lscala/actors/AbstractActor;Ljava/lang/Object;)V;
const #93 = Asciz	()Lscala/actors/Actor;;
const #94 = NameAndType	#5:#93;//  del:()Lscala/actors/Actor;
const #95 = Method	#18.#94;	//  scala/actors/remote/Proxy.del:()Lscala/actors/Actor;
const #96 = Asciz	scala/actors/remote/Apply0;
const #97 = class	#96;	//  scala/actors/remote/Apply0
const #98 = Asciz	scala/actors/remote/ExitFun;
const #99 = class	#98;	//  scala/actors/remote/ExitFun
const #100 = Asciz	(Ljava/lang/Object;)V;
const #101 = NameAndType	#13:#100;//  "<init>":(Ljava/lang/Object;)V
const #102 = Method	#99.#101;	//  scala/actors/remote/ExitFun."<init>":(Ljava/lang/Object;)V
const #103 = Asciz	(Lscala/Function2;)V;
const #104 = NameAndType	#13:#103;//  "<init>":(Lscala/Function2;)V
const #105 = Method	#97.#104;	//  scala/actors/remote/Apply0."<init>":(Lscala/Function2;)V
const #106 = Asciz	scala/actors/ReplyReactor;
const #107 = class	#106;	//  scala/actors/ReplyReactor
const #108 = Asciz	$bang;
const #109 = NameAndType	#108:#100;//  $bang:(Ljava/lang/Object;)V
const #110 = InterfaceMethod	#107.#109;	//  scala/actors/ReplyReactor.$bang:(Ljava/lang/Object;)V
const #111 = Asciz	from;
const #112 = Asciz	Lscala/actors/AbstractActor;;
const #113 = Asciz	reason;
const #114 = Asciz	unlinkFrom;
const #115 = Asciz	scala/actors/remote/UnlinkFromFun;
const #116 = class	#115;	//  scala/actors/remote/UnlinkFromFun
const #117 = Method	#116.#28;	//  scala/actors/remote/UnlinkFromFun."<init>":()V
const #118 = Asciz	linkTo;
const #119 = Asciz	scala/actors/remote/LinkToFun;
const #120 = class	#119;	//  scala/actors/remote/LinkToFun
const #121 = Method	#120.#28;	//  scala/actors/remote/LinkToFun."<init>":()V
const #122 = Asciz	to;
const #123 = Asciz	scala/actors/ReplyableActor;
const #124 = class	#123;	//  scala/actors/ReplyableActor
const #125 = InterfaceMethod	#124.#58;	//  scala/actors/ReplyableActor.$bang$bang:(Ljava/lang/Object;Lscala/PartialFunction;)Lscala/actors/Future;
const #126 = Asciz	<A:Ljava/lang/Object;>(Ljava/lang/Object;Lscala/PartialFunction<Ljava/lang/Object;TA;>;)Lscala/actors/Future<TA;>;;
const #127 = Asciz	Signature;
const #128 = InterfaceMethod	#124.#52;	//  scala/actors/ReplyableActor.$bang$bang:(Ljava/lang/Object;)Lscala/actors/Future;
const #129 = Asciz	(Ljava/lang/Object;)Lscala/actors/Future<Ljava/lang/Object;>;;
const #130 = Asciz	$bang$qmark;
const #131 = Asciz	(JLjava/lang/Object;)Lscala/Option;;
const #132 = NameAndType	#130:#131;//  $bang$qmark:(JLjava/lang/Object;)Lscala/Option;
const #133 = InterfaceMethod	#124.#132;	//  scala/actors/ReplyableActor.$bang$qmark:(JLjava/lang/Object;)Lscala/Option;
const #134 = Asciz	msec;
const #135 = Asciz	J;
const #136 = Asciz	(JLjava/lang/Object;)Lscala/Option<Ljava/lang/Object;>;;
const #137 = Asciz	(Ljava/lang/Object;)Ljava/lang/Object;;
const #138 = NameAndType	#130:#137;//  $bang$qmark:(Ljava/lang/Object;)Ljava/lang/Object;
const #139 = InterfaceMethod	#124.#138;	//  scala/actors/ReplyableActor.$bang$qmark:(Ljava/lang/Object;)Ljava/lang/Object;
const #140 = Asciz	receiver;
const #141 = Asciz	forward;
const #142 = NameAndType	#141:#100;//  forward:(Ljava/lang/Object;)V
const #143 = InterfaceMethod	#107.#142;	//  scala/actors/ReplyReactor.forward:(Ljava/lang/Object;)V
const #144 = Asciz	send;
const #145 = Asciz	(Ljava/lang/Object;Lscala/actors/OutputChannel;)V;
const #146 = Asciz	scala/actors/Reactor;
const #147 = class	#146;	//  scala/actors/Reactor
const #148 = NameAndType	#144:#145;//  send:(Ljava/lang/Object;Lscala/actors/OutputChannel;)V
const #149 = InterfaceMethod	#147.#148;	//  scala/actors/Reactor.send:(Ljava/lang/Object;Lscala/actors/OutputChannel;)V
const #150 = Asciz	replyCh;
const #151 = Asciz	Lscala/actors/OutputChannel;;
const #152 = Asciz	(Ljava/lang/Object;Lscala/actors/OutputChannel<Ljava/lang/Object;>;)V;
const #153 = Asciz	setupKernel;
const #154 = Asciz	scala/actors/remote/RemoteActor$;
const #155 = class	#154;	//  scala/actors/remote/RemoteActor$
const #156 = Asciz	Lscala/actors/remote/RemoteActor$;;
const #157 = NameAndType	#69:#156;//  MODULE$:Lscala/actors/remote/RemoteActor$;
const #158 = Field	#155.#157;	//  scala/actors/remote/RemoteActor$.MODULE$:Lscala/actors/remote/RemoteActor$;
const #159 = Asciz	someKernel;
const #160 = Asciz	()Lscala/actors/remote/NetKernel;;
const #161 = NameAndType	#159:#160;//  someKernel:()Lscala/actors/remote/NetKernel;
const #162 = Method	#155.#161;	//  scala/actors/remote/RemoteActor$.someKernel:()Lscala/actors/remote/NetKernel;
const #163 = Asciz	kernel_$eq;
const #164 = Asciz	(Lscala/actors/remote/NetKernel;)V;
const #165 = NameAndType	#163:#164;//  kernel_$eq:(Lscala/actors/remote/NetKernel;)V
const #166 = Method	#18.#165;	//  scala/actors/remote/Proxy.kernel_$eq:(Lscala/actors/remote/NetKernel;)V
const #167 = NameAndType	#7:#160;//  kernel:()Lscala/actors/remote/NetKernel;
const #168 = Method	#18.#167;	//  scala/actors/remote/Proxy.kernel:()Lscala/actors/remote/NetKernel;
const #169 = Asciz	scala/actors/remote/NetKernel;
const #170 = class	#169;	//  scala/actors/remote/NetKernel
const #171 = Asciz	registerProxy;
const #172 = Asciz	(Lscala/actors/remote/Node;Lscala/Symbol;Lscala/actors/remote/Proxy;)V;
const #173 = NameAndType	#171:#172;//  registerProxy:(Lscala/actors/remote/Node;Lscala/Symbol;Lscala/actors/remote/Proxy;)V
const #174 = Method	#170.#173;	//  scala/actors/remote/NetKernel.registerProxy:(Lscala/actors/remote/Node;Lscala/Symbol;Lscala/actors/remote/Proxy;)V
const #175 = Asciz	scala/actors/remote/DelegateActor;
const #176 = class	#175;	//  scala/actors/remote/DelegateActor
const #177 = Asciz	(Lscala/actors/remote/Proxy;Lscala/actors/remote/Node;Lscala/Symbol;Lscala/actors/remote/NetKernel;)V;
const #178 = NameAndType	#13:#177;//  "<init>":(Lscala/actors/remote/Proxy;Lscala/actors/remote/Node;Lscala/Symbol;Lscala/actors/remote/NetKernel;)V
const #179 = Method	#176.#178;	//  scala/actors/remote/DelegateActor."<init>":(Lscala/actors/remote/Proxy;Lscala/actors/remote/Node;Lscala/Symbol;Lscala/actors/remote/NetKernel;)V
const #180 = Asciz	del_$eq;
const #181 = Asciz	(Lscala/actors/Actor;)V;
const #182 = NameAndType	#180:#181;//  del_$eq:(Lscala/actors/Actor;)V
const #183 = Method	#18.#182;	//  scala/actors/remote/Proxy.del_$eq:(Lscala/actors/Actor;)V
const #184 = Asciz	scala/actors/Actor;
const #185 = class	#184;	//  scala/actors/Actor
const #186 = Asciz	start;
const #187 = NameAndType	#186:#93;//  start:()Lscala/actors/Actor;
const #188 = InterfaceMethod	#185.#187;	//  scala/actors/Actor.start:()Lscala/actors/Actor;
const #189 = Asciz	readObject;
const #190 = Asciz	(Ljava/io/ObjectInputStream;)V;
const #191 = Asciz	java/io/ObjectInputStream;
const #192 = class	#191;	//  java/io/ObjectInputStream
const #193 = Asciz	defaultReadObject;
const #194 = NameAndType	#193:#27;//  defaultReadObject:()V
const #195 = Method	#192.#194;	//  java/io/ObjectInputStream.defaultReadObject:()V
const #196 = NameAndType	#153:#27;//  setupKernel:()V
const #197 = Method	#18.#196;	//  scala/actors/remote/Proxy.setupKernel:()V
const #198 = Asciz	in;
const #199 = Asciz	Ljava/io/ObjectInputStream;;
const #200 = Asciz	java/lang/ClassNotFoundException;
const #201 = class	#200;	//  java/lang/ClassNotFoundException
const #202 = Asciz	java/io/IOException;
const #203 = class	#202;	//  java/io/IOException
const #204 = Asciz	Exceptions;
const #205 = Asciz	writeObject;
const #206 = Asciz	(Ljava/io/ObjectOutputStream;)V;
const #207 = Asciz	java/io/ObjectOutputStream;
const #208 = class	#207;	//  java/io/ObjectOutputStream
const #209 = Asciz	defaultWriteObject;
const #210 = NameAndType	#209:#27;//  defaultWriteObject:()V
const #211 = Method	#208.#210;	//  java/io/ObjectOutputStream.defaultWriteObject:()V
const #212 = Asciz	out;
const #213 = Asciz	Ljava/io/ObjectOutputStream;;
const #214 = Asciz	exiting_$eq;
const #215 = Asciz	(Z)V;
const #216 = NameAndType	#3:#4;//  exiting:Z
const #217 = Field	#18.#216;	//  scala/actors/remote/Proxy.exiting:Z
const #218 = Asciz	()Z;
const #219 = Asciz	ScalaSig;
const #220 = Asciz	scala/actors/AbstractActor;
const #221 = class	#220;	//  scala/actors/AbstractActor
const #222 = Asciz	scala/ScalaObject;
const #223 = class	#222;	//  scala/ScalaObject
const #224 = Asciz	java/io/Serializable;
const #225 = class	#224;	//  java/io/Serializable

{
public scala.actors.remote.Proxy(scala.actors.remote.Node, scala.Symbol, scala.actors.remote.NetKernel);
  Code:
   Stack=2, Locals=4, Args_size=4
   0:	aload_0
   1:	aload_1
   2:	putfield	#20; //Field node:Lscala/actors/remote/Node;
   5:	aload_0
   6:	aload_2
   7:	putfield	#22; //Field name:Lscala/Symbol;
   10:	aload_0
   11:	aload_3
   12:	putfield	#24; //Field kernel:Lscala/actors/remote/NetKernel;
   15:	aload_0
   16:	invokespecial	#29; //Method java/lang/Object."<init>":()V
   19:	aload_0
   20:	invokestatic	#35; //Method scala/actors/Replyable$class.$init$:(Lscala/actors/Replyable;)V
   23:	aload_0
   24:	invokestatic	#40; //Method scala/actors/AbstractActor$class.$init$:(Lscala/actors/AbstractActor;)V
   27:	aload_0
   28:	aconst_null
   29:	putfield	#42; //Field del:Lscala/actors/Actor;
   32:	aload_0
   33:	invokespecial	#45; //Method startDelegate:()V
   36:	return
  LineNumberTable: 
   line 20: 0
   line 26: 27
   line 27: 32

  LocalVariableTable: 
   Start  Length  Slot  Name   Signature
   0      37      0    this       Lscala/actors/remote/Proxy;
   0      37      1    node       Lscala/actors/remote/Node;
   0      37      2    name       Lscala/Symbol;
   0      37      3    kernel       Lscala/actors/remote/NetKernel;


public scala.Function0 $bang$bang(java.lang.Object);
  Code:
   Stack=2, Locals=2, Args_size=2
   0:	aload_0
   1:	aload_1
   2:	invokevirtual	#53; //Method $bang$bang:(Ljava/lang/Object;)Lscala/actors/Future;
   5:	areturn
  LineNumberTable: 
   line 20: 0

  LocalVariableTable: 
   Start  Length  Slot  Name   Signature
   0      6      0    this       Lscala/actors/remote/Proxy;
   0      6      1    msg       Ljava/lang/Object;


public scala.Function0 $bang$bang(java.lang.Object, scala.PartialFunction);
  Code:
   Stack=3, Locals=3, Args_size=3
   0:	aload_0
   1:	aload_1
   2:	aload_2
   3:	invokevirtual	#59; //Method $bang$bang:(Ljava/lang/Object;Lscala/PartialFunction;)Lscala/actors/Future;
   6:	areturn
  LineNumberTable: 
   line 20: 0

  LocalVariableTable: 
   Start  Length  Slot  Name   Signature
   0      7      0    this       Lscala/actors/remote/Proxy;
   0      7      1    msg       Ljava/lang/Object;
   0      7      2    f       Lscala/PartialFunction;


public java.lang.String toString();
  Code:
   Stack=3, Locals=1, Args_size=1
   0:	new	#65; //class scala/collection/mutable/StringBuilder
   3:	dup
   4:	invokespecial	#66; //Method scala/collection/mutable/StringBuilder."<init>":()V
   7:	getstatic	#72; //Field scala/Predef$.MODULE$:Lscala/Predef$;
   10:	aload_0
   11:	getfield	#22; //Field name:Lscala/Symbol;
   14:	invokevirtual	#76; //Method scala/Predef$.any2stringadd:(Ljava/lang/Object;)Lscala/runtime/StringAdd;
   17:	ldc	#78; //String @
   19:	invokevirtual	#84; //Method scala/runtime/StringAdd.$plus:(Ljava/lang/String;)Ljava/lang/String;
   22:	invokevirtual	#88; //Method scala/collection/mutable/StringBuilder.append:(Ljava/lang/Object;)Lscala/collection/mutable/StringBuilder;
   25:	aload_0
   26:	getfield	#20; //Field node:Lscala/actors/remote/Node;
   29:	invokevirtual	#88; //Method scala/collection/mutable/StringBuilder.append:(Ljava/lang/Object;)Lscala/collection/mutable/StringBuilder;
   32:	invokevirtual	#90; //Method scala/collection/mutable/StringBuilder.toString:()Ljava/lang/String;
   35:	areturn
  LineNumberTable: 
   line 85: 0


public void exit(scala.actors.AbstractActor, java.lang.Object);
  Code:
   Stack=6, Locals=3, Args_size=3
   0:	aload_0
   1:	invokevirtual	#95; //Method del:()Lscala/actors/Actor;
   4:	new	#97; //class scala/actors/remote/Apply0
   7:	dup
   8:	new	#99; //class scala/actors/remote/ExitFun
   11:	dup
   12:	aload_2
   13:	invokespecial	#102; //Method scala/actors/remote/ExitFun."<init>":(Ljava/lang/Object;)V
   16:	invokespecial	#105; //Method scala/actors/remote/Apply0."<init>":(Lscala/Function2;)V
   19:	invokeinterface	#110,  2; //InterfaceMethod scala/actors/ReplyReactor.$bang:(Ljava/lang/Object;)V
   24:	return
  LineNumberTable: 
   line 82: 0

  LocalVariableTable: 
   Start  Length  Slot  Name   Signature
   0      25      0    this       Lscala/actors/remote/Proxy;
   0      25      1    from       Lscala/actors/AbstractActor;
   0      25      2    reason       Ljava/lang/Object;


public void unlinkFrom(scala.actors.AbstractActor);
  Code:
   Stack=5, Locals=2, Args_size=2
   0:	aload_0
   1:	invokevirtual	#95; //Method del:()Lscala/actors/Actor;
   4:	new	#97; //class scala/actors/remote/Apply0
   7:	dup
   8:	new	#116; //class scala/actors/remote/UnlinkFromFun
   11:	dup
   12:	invokespecial	#117; //Method scala/actors/remote/UnlinkFromFun."<init>":()V
   15:	invokespecial	#105; //Method scala/actors/remote/Apply0."<init>":(Lscala/Function2;)V
   18:	invokeinterface	#110,  2; //InterfaceMethod scala/actors/ReplyReactor.$bang:(Ljava/lang/Object;)V
   23:	return
  LineNumberTable: 
   line 79: 0

  LocalVariableTable: 
   Start  Length  Slot  Name   Signature
   0      24      0    this       Lscala/actors/remote/Proxy;
   0      24      1    from       Lscala/actors/AbstractActor;


public void linkTo(scala.actors.AbstractActor);
  Code:
   Stack=5, Locals=2, Args_size=2
   0:	aload_0
   1:	invokevirtual	#95; //Method del:()Lscala/actors/Actor;
   4:	new	#97; //class scala/actors/remote/Apply0
   7:	dup
   8:	new	#120; //class scala/actors/remote/LinkToFun
   11:	dup
   12:	invokespecial	#121; //Method scala/actors/remote/LinkToFun."<init>":()V
   15:	invokespecial	#105; //Method scala/actors/remote/Apply0."<init>":(Lscala/Function2;)V
   18:	invokeinterface	#110,  2; //InterfaceMethod scala/actors/ReplyReactor.$bang:(Ljava/lang/Object;)V
   23:	return
  LineNumberTable: 
   line 76: 0

  LocalVariableTable: 
   Start  Length  Slot  Name   Signature
   0      24      0    this       Lscala/actors/remote/Proxy;
   0      24      1    to       Lscala/actors/AbstractActor;


public scala.actors.Future $bang$bang(java.lang.Object, scala.PartialFunction);
  Code:
   Stack=3, Locals=3, Args_size=3
   0:	aload_0
   1:	invokevirtual	#95; //Method del:()Lscala/actors/Actor;
   4:	aload_1
   5:	aload_2
   6:	invokeinterface	#125,  3; //InterfaceMethod scala/actors/ReplyableActor.$bang$bang:(Ljava/lang/Object;Lscala/PartialFunction;)Lscala/actors/Future;
   11:	areturn
  LineNumberTable: 
   line 73: 0

  LocalVariableTable: 
   Start  Length  Slot  Name   Signature
   0      12      0    this       Lscala/actors/remote/Proxy;
   0      12      1    msg       Ljava/lang/Object;
   0      12      2    f       Lscala/PartialFunction;

  Signature: length = 0x2
   00 7E 

public scala.actors.Future $bang$bang(java.lang.Object);
  Code:
   Stack=2, Locals=2, Args_size=2
   0:	aload_0
   1:	invokevirtual	#95; //Method del:()Lscala/actors/Actor;
   4:	aload_1
   5:	invokeinterface	#128,  2; //InterfaceMethod scala/actors/ReplyableActor.$bang$bang:(Ljava/lang/Object;)Lscala/actors/Future;
   10:	areturn
  LineNumberTable: 
   line 70: 0

  LocalVariableTable: 
   Start  Length  Slot  Name   Signature
   0      11      0    this       Lscala/actors/remote/Proxy;
   0      11      1    msg       Ljava/lang/Object;

  Signature: length = 0x2
   00 FFFFFF81 

public scala.Option $bang$qmark(long, java.lang.Object);
  Code:
   Stack=4, Locals=4, Args_size=3
   0:	aload_0
   1:	invokevirtual	#95; //Method del:()Lscala/actors/Actor;
   4:	lload_1
   5:	aload_3
   6:	invokeinterface	#133,  4; //InterfaceMethod scala/actors/ReplyableActor.$bang$qmark:(JLjava/lang/Object;)Lscala/Option;
   11:	areturn
  LineNumberTable: 
   line 67: 0

  LocalVariableTable: 
   Start  Length  Slot  Name   Signature
   0      12      0    this       Lscala/actors/remote/Proxy;
   0      12      1    msec       J
   0      12      3    msg       Ljava/lang/Object;

  Signature: length = 0x2
   00 FFFFFF88 

public java.lang.Object $bang$qmark(java.lang.Object);
  Code:
   Stack=2, Locals=2, Args_size=2
   0:	aload_0
   1:	invokevirtual	#95; //Method del:()Lscala/actors/Actor;
   4:	aload_1
   5:	invokeinterface	#139,  2; //InterfaceMethod scala/actors/ReplyableActor.$bang$qmark:(Ljava/lang/Object;)Ljava/lang/Object;
   10:	areturn
  LineNumberTable: 
   line 64: 0

  LocalVariableTable: 
   Start  Length  Slot  Name   Signature
   0      11      0    this       Lscala/actors/remote/Proxy;
   0      11      1    msg       Ljava/lang/Object;


public scala.actors.Actor receiver();
  Code:
   Stack=1, Locals=1, Args_size=1
   0:	aload_0
   1:	invokevirtual	#95; //Method del:()Lscala/actors/Actor;
   4:	areturn
  LineNumberTable: 
   line 61: 0


public void forward(java.lang.Object);
  Code:
   Stack=2, Locals=2, Args_size=2
   0:	aload_0
   1:	invokevirtual	#95; //Method del:()Lscala/actors/Actor;
   4:	aload_1
   5:	invokeinterface	#143,  2; //InterfaceMethod scala/actors/ReplyReactor.forward:(Ljava/lang/Object;)V
   10:	return
  LineNumberTable: 
   line 58: 0

  LocalVariableTable: 
   Start  Length  Slot  Name   Signature
   0      11      0    this       Lscala/actors/remote/Proxy;
   0      11      1    msg       Ljava/lang/Object;


public void send(java.lang.Object, scala.actors.OutputChannel);
  Code:
   Stack=3, Locals=3, Args_size=3
   0:	aload_0
   1:	invokevirtual	#95; //Method del:()Lscala/actors/Actor;
   4:	aload_1
   5:	aload_2
   6:	invokeinterface	#149,  3; //InterfaceMethod scala/actors/Reactor.send:(Ljava/lang/Object;Lscala/actors/OutputChannel;)V
   11:	return
  LineNumberTable: 
   line 55: 0

  LocalVariableTable: 
   Start  Length  Slot  Name   Signature
   0      12      0    this       Lscala/actors/remote/Proxy;
   0      12      1    msg       Ljava/lang/Object;
   0      12      2    replyCh       Lscala/actors/OutputChannel;

  Signature: length = 0x2
   00 FFFFFF98 

public void $bang(java.lang.Object);
  Code:
   Stack=2, Locals=2, Args_size=2
   0:	aload_0
   1:	invokevirtual	#95; //Method del:()Lscala/actors/Actor;
   4:	aload_1
   5:	invokeinterface	#110,  2; //InterfaceMethod scala/actors/ReplyReactor.$bang:(Ljava/lang/Object;)V
   10:	return
  LineNumberTable: 
   line 52: 0

  LocalVariableTable: 
   Start  Length  Slot  Name   Signature
   0      11      0    this       Lscala/actors/remote/Proxy;
   0      11      1    msg       Ljava/lang/Object;


public void del_$eq(scala.actors.Actor);
  Code:
   Stack=2, Locals=2, Args_size=2
   0:	aload_0
   1:	aload_1
   2:	putfield	#42; //Field del:Lscala/actors/Actor;
   5:	return
  LineNumberTable: 
   line 26: 0


public scala.actors.Actor del();
  Code:
   Stack=1, Locals=1, Args_size=1
   0:	aload_0
   1:	getfield	#42; //Field del:Lscala/actors/Actor;
   4:	areturn
  LineNumberTable: 
   line 26: 0


public void kernel_$eq(scala.actors.remote.NetKernel);
  Code:
   Stack=2, Locals=2, Args_size=2
   0:	aload_0
   1:	aload_1
   2:	putfield	#24; //Field kernel:Lscala/actors/remote/NetKernel;
   5:	return
  LineNumberTable: 
   line 20: 0


public scala.actors.remote.NetKernel kernel();
  Code:
   Stack=1, Locals=1, Args_size=1
   0:	aload_0
   1:	getfield	#24; //Field kernel:Lscala/actors/remote/NetKernel;
   4:	areturn
  LineNumberTable: 
   line 20: 0


public void exiting_$eq(boolean);
  Code:
   Stack=2, Locals=2, Args_size=2
   0:	aload_0
   1:	iload_1
   2:	putfield	#217; //Field exiting:Z
   5:	return
  LineNumberTable: 
   line 20: 0


public boolean exiting();
  Code:
   Stack=1, Locals=1, Args_size=1
   0:	aload_0
   1:	getfield	#217; //Field exiting:Z
   4:	ireturn
  LineNumberTable: 
   line 20: 0


}

