Compiled from "NetKernel.scala"
public class scala.actors.remote.SendTo extends java.lang.Object implements scala.ScalaObject,scala.Product,java.io.Serializable
  SourceFile: "NetKernel.scala"
  ScalaSig: length = 0x43D
   05 00 FFFFFF81 1C 06 08 01 02 FFFFFF84 FFFFFF80 FFFFFF80 FFFFFF80 40 09 02 06
   53 65 6E 64 54 6F 0A 02 03 04 01 06 72 65 6D 6F
   74 65 0A 02 05 06 01 06 61 63 74 6F 72 73 0A 01
   07 01 05 73 63 61 6C 61 03 00 13 04 00 0A 12 16
   10 02 0B 10 0D 01 0C 0A 02 0D 0E 01 04 6C 61 6E
   67 0A 01 0F 01 04 6A 61 76 61 09 02 11 0C 02 06
   4F 62 6A 65 63 74 10 02 13 14 0D 01 06 09 02 15
   06 02 0B 53 63 61 6C 61 4F 62 6A 65 63 74 10 02
   13 17 09 02 18 06 02 07 50 72 6F 64 75 63 74 08
   08 1A 00 FFFFFF82 FFFFFFCA FFFFFF80 FFFFFF84 00 1B 01 01 61 15 01 1C 10
   03 1D 1E 20 0D 01 04 09 02 1F 04 02 0D 4F 75 74
   70 75 74 43 68 61 6E 6E 65 6C 10 02 13 21 09 02
   22 06 02 03 41 6E 79 08 08 24 00 FFFFFF82 FFFFFF88 FFFFFFA0 FFFFFF80 04
   1C 01 02 61 20 08 08 26 00 FFFFFF82 FFFFFFCA FFFFFF80 FFFFFF84 00 27 01
   03 6D 73 67 15 01 20 08 08 29 00 FFFFFF82 FFFFFF88 FFFFFFA0 FFFFFF80 04
   20 01 04 6D 73 67 20 08 08 2B 00 FFFFFF82 FFFFFFCA FFFFFF80 FFFFFF84 00
   2C 01 07 73 65 73 73 69 6F 6E 15 01 2D 10 02 13
   2E 09 02 2F 06 02 06 53 79 6D 62 6F 6C 08 08 31
   00 FFFFFF82 FFFFFF88 FFFFFFA0 FFFFFF80 04 2D 01 08 73 65 73 73 69 6F 6E
   20 08 05 33 00 FFFFFF84 00 34 01 06 3C 69 6E 69 74 3E
   14 04 35 37 38 39 10 02 36 00 0D 01 02 08 05 1A
   32 FFFFFFC0 00 1C 08 05 26 32 FFFFFFC0 00 20 08 05 2B 32 FFFFFFC0
   00 2D 08 07 3B 00 FFFFFF81 FFFFFF80 FFFFFF84 00 3C 01 04 63 6F 70
   79 14 04 35 3D 3E 3F 08 07 1A 3A FFFFFF90 FFFFFF80 FFFFFFC0 00 1C
   08 07 26 3A FFFFFF90 FFFFFF80 FFFFFFC0 00 20 08 07 2B 3A FFFFFF90 FFFFFF80 FFFFFFC0
   00 2D 08 07 41 00 FFFFFF91 FFFFFF80 FFFFFF84 00 42 01 0E 63 6F 70
   79 24 64 65 66 61 75 6C 74 24 31 15 01 43 2A 02
   1C 44 2B 01 45 10 02 46 4B 0D 01 47 0A 02 48 49
   01 09 75 6E 63 68 65 63 6B 65 64 0A 02 4A 06 01
   0A 61 6E 6E 6F 74 61 74 69 6F 6E 09 02 4C 47 02
   11 75 6E 63 68 65 63 6B 65 64 56 61 72 69 61 6E
   63 65 08 07 4E 00 FFFFFF91 FFFFFF80 FFFFFF84 00 4F 01 0E 63 6F 70
   79 24 64 65 66 61 75 6C 74 24 32 15 01 50 2A 02
   20 44 08 07 52 00 FFFFFF91 FFFFFF80 FFFFFF84 00 53 01 0E 63 6F 70
   79 24 64 65 66 61 75 6C 74 24 33 15 01 54 2A 02
   2D 44 08 08 56 00 FFFFFF84 FFFFFF80 FFFFFF80 FFFFFF84 20 57 01 08 68 61
   73 68 43 6F 64 65 14 01 58 10 02 13 59 09 02 5A
   06 02 03 49 6E 74 08 08 5C 00 FFFFFF84 FFFFFF80 FFFFFF80 FFFFFF84 20 5D
   01 08 74 6F 53 74 72 69 6E 67 14 01 5E 10 02 5F
   62 0E 02 13 60 09 02 61 06 01 06 50 72 65 64 65
   66 09 02 63 64 02 06 53 74 72 69 6E 67 0A 02 61
   06 08 08 66 00 FFFFFF84 FFFFFF80 FFFFFF80 FFFFFF84 20 67 01 06 65 71 75
   61 6C 73 14 02 68 6B 10 02 13 69 09 02 6A 06 02
   07 42 6F 6F 6C 65 61 6E 08 07 6C 65 FFFFFF81 FFFFFF80 FFFFFFC0 00
   20 01 03 78 24 31 08 08 6E 00 FFFFFF84 FFFFFF80 FFFFFF80 FFFFFF84 20 6F
   01 0D 70 72 6F 64 75 63 74 50 72 65 66 69 78 15
   01 70 10 02 0B 71 09 02 63 0C 08 08 73 00 FFFFFF84 FFFFFF80
   FFFFFF80 FFFFFF84 20 74 01 0C 70 72 6F 64 75 63 74 41 72 69
   74 79 15 01 58 08 08 76 00 FFFFFF84 FFFFFF80 FFFFFF80 FFFFFF84 20 77 01
   0E 70 72 6F 64 75 63 74 45 6C 65 6D 65 6E 74 14
   02 20 78 08 07 6C 75 FFFFFF81 FFFFFF80 FFFFFFC0 00 58 08 08 7A 00
   FFFFFF84 FFFFFF80 FFFFFF80 FFFFFF84 20 7B 01 08 63 61 6E 45 71 75 61 6C
   14 02 68 7C 08 07 6C 79 FFFFFF81 FFFFFF80 FFFFFFC0 00 20 28 02 00
   7E 10 02 13 7F 09 03 FFFFFF81 00 06 02 0C 73 65 72 69
   61 6C 69 7A 61 62 6C 65 07 09 FFFFFF81 02 02 FFFFFF81 FFFFFF80 FFFFFF88
   02 FFFFFF81 03 01 06 53 65 6E 64 54 6F 10 03 36 FFFFFF81 04
   06 09 01 02 FFFFFF84 FFFFFF81 FFFFFF80 FFFFFF88 02 FFFFFF81 05 13 06 FFFFFF81 04 0A
   FFFFFF81 06 12 10 07 13 FFFFFF81 07 1C 20 2D 35 09 03 FFFFFF81 08
   06 02 09 46 75 6E 63 74 69 6F 6E 33 08 07 33 FFFFFF81
   04 FFFFFF84 00 FFFFFF81 0A 14 02 FFFFFF81 03 08 0A FFFFFF81 0C FFFFFF81 04 FFFFFF81
   FFFFFF80 FFFFFF84 40 FFFFFF81 0D 01 05 61 70 70 6C 79 14 07 35 FFFFFF81
   0E FFFFFF81 0F FFFFFF81 10 08 06 1A FFFFFF81 0B FFFFFFC0 00 1C 08 06 26
   FFFFFF81 0B FFFFFFC0 00 20 08 06 2B FFFFFF81 0B FFFFFFC0 00 2D 08 0A FFFFFF81
   12 FFFFFF81 04 FFFFFF81 FFFFFF80 FFFFFF84 40 FFFFFF81 13 01 07 75 6E 61 70 70
   6C 79 14 04 FFFFFF81 14 FFFFFF81 1A 10 05 13 FFFFFF81 15 FFFFFF81 17 09
   03 FFFFFF81 16 06 02 04 53 6F 6D 65 10 06 13 FFFFFF81 18 1C
   20 2D 09 03 FFFFFF81 19 06 02 06 54 75 70 6C 65 33 08
   07 FFFFFF81 1B FFFFFF81 11 FFFFFFC0 00 35 01 03 78 24 30 
  minor version: 0
  major version: 49
  Constant pool:
Asciz	SourceFile;
Asciz	NetKernel.scala;
Asciz	tupled;
Asciz	()Lscala/Function1;;
Asciz	Code;
Asciz	scala/actors/remote/SendTo$;
class	scala/actors/remote/SendTo$
Asciz	MODULE$;
Asciz	Lscala/actors/remote/SendTo$;;
NameAndType	MODULE$:Lscala/actors/remote/SendTo$;
Field	scala/actors/remote/SendTo$.MODULE$:Lscala/actors/remote/SendTo$;
NameAndType	tupled:()Lscala/Function1;
Method	scala/actors/remote/SendTo$.tupled:()Lscala/Function1;
Asciz	curry;
NameAndType	curry:()Lscala/Function1;
Method	scala/actors/remote/SendTo$.curry:()Lscala/Function1;
Asciz	Deprecated;
Asciz	curried;
NameAndType	curried:()Lscala/Function1;
Method	scala/actors/remote/SendTo$.curried:()Lscala/Function1;
Asciz	session;
Asciz	Lscala/Symbol;;
Asciz	msg;
Asciz	Ljava/lang/Object;;
Asciz	a;
Asciz	Lscala/actors/OutputChannel;;
Asciz	Lscala/actors/OutputChannel<Ljava/lang/Object;>;;
Asciz	Signature;
Asciz	<init>;
Asciz	(Lscala/actors/OutputChannel;Ljava/lang/Object;Lscala/Symbol;)V;
Asciz	LineNumberTable;
Asciz	scala/actors/remote/SendTo;
class	scala/actors/remote/SendTo
NameAndType	a:Lscala/actors/OutputChannel;
Field	scala/actors/remote/SendTo.a:Lscala/actors/OutputChannel;
NameAndType	msg:Ljava/lang/Object;
Field	scala/actors/remote/SendTo.msg:Ljava/lang/Object;
NameAndType	session:Lscala/Symbol;
Field	scala/actors/remote/SendTo.session:Lscala/Symbol;
Asciz	java/lang/Object;
class	java/lang/Object
Asciz	()V;
NameAndType	"<init>":()V
Method	java/lang/Object."<init>":()V
Asciz	scala/Product$class;
class	scala/Product$class
Asciz	$init$;
Asciz	(Lscala/Product;)V;
NameAndType	$init$:(Lscala/Product;)V
Method	scala/Product$class.$init$:(Lscala/Product;)V
Asciz	this;
Asciz	Lscala/actors/remote/SendTo;;
Asciz	LocalVariableTable;
Asciz	(Lscala/actors/OutputChannel<Ljava/lang/Object;>;Ljava/lang/Object;Lscala/Symbol;)V;
Asciz	gd4$1;
Asciz	(Lscala/actors/OutputChannel;Ljava/lang/Object;Lscala/Symbol;)Z;
Asciz	()Lscala/actors/OutputChannel;;
NameAndType	a:()Lscala/actors/OutputChannel;
Method	scala/actors/remote/SendTo.a:()Lscala/actors/OutputChannel;
Asciz	equals;
Asciz	(Ljava/lang/Object;)Z;
NameAndType	equals:(Ljava/lang/Object;)Z
Method	java/lang/Object.equals:(Ljava/lang/Object;)Z
Asciz	()Ljava/lang/Object;;
NameAndType	msg:()Ljava/lang/Object;
Method	scala/actors/remote/SendTo.msg:()Ljava/lang/Object;
Asciz	java/lang/Number;
class	java/lang/Number
Asciz	java/lang/Character;
class	java/lang/Character
Asciz	scala/runtime/BoxesRunTime;
class	scala/runtime/BoxesRunTime
Asciz	equals2;
Asciz	(Ljava/lang/Object;Ljava/lang/Object;)Z;
NameAndType	equals2:(Ljava/lang/Object;Ljava/lang/Object;)Z
Method	scala/runtime/BoxesRunTime.equals2:(Ljava/lang/Object;Ljava/lang/Object;)Z
Asciz	()Lscala/Symbol;;
NameAndType	session:()Lscala/Symbol;
Method	scala/actors/remote/SendTo.session:()Lscala/Symbol;
Asciz	canEqual;
Asciz	productElement;
Asciz	(I)Ljava/lang/Object;;
Asciz	java/lang/IndexOutOfBoundsException;
class	java/lang/IndexOutOfBoundsException
Asciz	boxToInteger;
Asciz	(I)Ljava/lang/Integer;;
NameAndType	boxToInteger:(I)Ljava/lang/Integer;
Method	scala/runtime/BoxesRunTime.boxToInteger:(I)Ljava/lang/Integer;
Asciz	toString;
Asciz	()Ljava/lang/String;;
NameAndType	toString:()Ljava/lang/String;
Method	java/lang/Object.toString:()Ljava/lang/String;
Asciz	(Ljava/lang/String;)V;
NameAndType	"<init>":(Ljava/lang/String;)V
Method	java/lang/IndexOutOfBoundsException."<init>":(Ljava/lang/String;)V
Asciz	productArity;
Asciz	()I;
Asciz	productPrefix;
Asciz	SendTo;
String	SendTo
NameAndType	gd4$1:(Lscala/actors/OutputChannel;Ljava/lang/Object;Lscala/Symbol;)Z
Method	scala/actors/remote/SendTo.gd4$1:(Lscala/actors/OutputChannel;Ljava/lang/Object;Lscala/Symbol;)Z
Asciz	scala/Equals;
class	scala/Equals
NameAndType	canEqual:(Ljava/lang/Object;)Z
InterfaceMethod	scala/Equals.canEqual:(Ljava/lang/Object;)Z
Asciz	temp20;
Asciz	temp21;
Asciz	temp22;
Asciz	temp23;
Asciz	scala/runtime/ScalaRunTime$;
class	scala/runtime/ScalaRunTime$
Asciz	Lscala/runtime/ScalaRunTime$;;
NameAndType	MODULE$:Lscala/runtime/ScalaRunTime$;
Field	scala/runtime/ScalaRunTime$.MODULE$:Lscala/runtime/ScalaRunTime$;
Asciz	_toString;
Asciz	(Lscala/Product;)Ljava/lang/String;;
NameAndType	_toString:(Lscala/Product;)Ljava/lang/String;
Method	scala/runtime/ScalaRunTime$._toString:(Lscala/Product;)Ljava/lang/String;
Asciz	hashCode;
Asciz	_hashCode;
Asciz	(Lscala/Product;)I;
NameAndType	_hashCode:(Lscala/Product;)I
Method	scala/runtime/ScalaRunTime$._hashCode:(Lscala/Product;)I
Asciz	copy;
Asciz	(Lscala/actors/OutputChannel;Ljava/lang/Object;Lscala/Symbol;)Lscala/actors/remote/SendTo;;
NameAndType	"<init>":(Lscala/actors/OutputChannel;Ljava/lang/Object;Lscala/Symbol;)V
Method	scala/actors/remote/SendTo."<init>":(Lscala/actors/OutputChannel;Ljava/lang/Object;Lscala/Symbol;)V
Asciz	()Lscala/actors/OutputChannel<Ljava/lang/Object;>;;
Asciz	copy$default$1;
Asciz	copy$default$2;
Asciz	copy$default$3;
Asciz	productElements;
Asciz	()Lscala/collection/Iterator;;
Asciz	(Lscala/Product;)Lscala/collection/Iterator;;
NameAndType	productElements:(Lscala/Product;)Lscala/collection/Iterator;
Method	scala/Product$class.productElements:(Lscala/Product;)Lscala/collection/Iterator;
Asciz	productIterator;
NameAndType	productIterator:(Lscala/Product;)Lscala/collection/Iterator;
Method	scala/Product$class.productIterator:(Lscala/Product;)Lscala/collection/Iterator;
Asciz	ScalaSig;
Asciz	scala/ScalaObject;
class	scala/ScalaObject
Asciz	scala/Product;
class	scala/Product
Asciz	java/io/Serializable;
class	java/io/Serializable

{
private final scala.Symbol session;
  Signature: Lscala/Symbol;

private final java.lang.Object msg;
  Signature: Ljava/lang/Object;

private final scala.actors.OutputChannel a;
  Signature: Lscala/actors/OutputChannel;
  Signature: length = 0x2
   00 1B 

public static final scala.Function1 tupled();
  Signature: ()Lscala/Function1;
  Code:
   Stack=1, Locals=0, Args_size=0
	getstatic	Field scala/actors/remote/SendTo$.MODULE$:Lscala/actors/remote/SendTo$;
	invokevirtual	Method scala/actors/remote/SendTo$.tupled:()Lscala/Function1;
	areturn
  Labels:

public static final scala.Function1 curry();
  Signature: ()Lscala/Function1;
  Code:
   Stack=1, Locals=0, Args_size=0
	getstatic	Field scala/actors/remote/SendTo$.MODULE$:Lscala/actors/remote/SendTo$;
	invokevirtual	Method scala/actors/remote/SendTo$.curry:()Lscala/Function1;
	areturn
  Labels:
  Deprecated: true

public static final scala.Function1 curried();
  Signature: ()Lscala/Function1;
  Code:
   Stack=1, Locals=0, Args_size=0
	getstatic	Field scala/actors/remote/SendTo$.MODULE$:Lscala/actors/remote/SendTo$;
	invokevirtual	Method scala/actors/remote/SendTo$.curried:()Lscala/Function1;
	areturn
  Labels:

public scala.actors.remote.SendTo(scala.actors.OutputChannel, java.lang.Object, scala.Symbol);
  Signature: (Lscala/actors/OutputChannel;Ljava/lang/Object;Lscala/Symbol;)V
  Code:
   Stack=2, Locals=4, Args_size=4
	aload_0
	aload_1
	putfield	Field a:Lscala/actors/OutputChannel;
	aload_0
	aload_2
	putfield	Field msg:Ljava/lang/Object;
	aload_0
	aload_3
	putfield	Field session:Lscala/Symbol;
	aload_0
	invokespecial	Method java/lang/Object."<init>":()V
	aload_0
	invokestatic	Method scala/Product$class.$init$:(Lscala/Product;)V
	return
  Labels:
  LocalVariableTable: 
   Start  Length  Slot  Name   Signature
   0      24      0    this       Lscala/actors/remote/SendTo;
   0      24      1    a       Lscala/actors/OutputChannel;
   0      24      2    msg       Ljava/lang/Object;
   0      24      3    session       Lscala/Symbol;

  Signature: length = 0x2
   00 36 

private final boolean gd4$1(scala.actors.OutputChannel, java.lang.Object, scala.Symbol);
  Signature: (Lscala/actors/OutputChannel;Ljava/lang/Object;Lscala/Symbol;)Z
  Code:
   Stack=2, Locals=7, Args_size=4
	aload_1
	aload_0
	invokevirtual	Method a:()Lscala/actors/OutputChannel;
	astore	4
	dup
	ifnonnull	l1 // aload
	pop
	aload	4
	ifnull	l2 // aload_0
	goto	l3 // iconst_0
l1	aload	4
	invokevirtual	Method java/lang/Object.equals:(Ljava/lang/Object;)Z
	ifeq	l3 // iconst_0
l2	aload_0
	invokevirtual	Method msg:()Ljava/lang/Object;
	astore	5
	aload_2
	aload	5
	if_acmpeq	l4 // iconst_1
	aload_2
	ifnull	l5 // iconst_0
	aload_2
	instanceof	class java/lang/Number
	ifne	l6 // aload_2
	aload_2
	instanceof	class java/lang/Character
	ifne	l6 // aload_2
	aload_2
	aload	5
	invokevirtual	Method java/lang/Object.equals:(Ljava/lang/Object;)Z
	goto	l7 // ifeq
l6	aload_2
	aload	5
	invokestatic	Method scala/runtime/BoxesRunTime.equals2:(Ljava/lang/Object;Ljava/lang/Object;)Z
	goto	l7 // ifeq
l5	iconst_0
	goto	l7 // ifeq
l4	iconst_1
l7	ifeq	l3 // iconst_0
	aload_3
	aload_0
	invokevirtual	Method session:()Lscala/Symbol;
	astore	6
	dup
	ifnonnull	l8 // aload
	pop
	aload	6
	ifnull	l9 // iconst_1
	goto	l3 // iconst_0
l8	aload	6
	invokevirtual	Method java/lang/Object.equals:(Ljava/lang/Object;)Z
	ifeq	l3 // iconst_0
l9	iconst_1
	goto	l10 // ireturn
l3	iconst_0
l10	ireturn
  Labels:
   	l1 = 20 // aload
   	l2 = 28 // aload_0
   	l6 = 67 // aload_2
   	l5 = 76 // iconst_0
   	l4 = 80 // iconst_1
   	l7 = 81 // ifeq
   	l8 = 104 // aload
   	l9 = 112 // iconst_1
   	l3 = 116 // iconst_0
   	l10 = 117 // ireturn
  LocalVariableTable: 
   Start  Length  Slot  Name   Signature
   0      118      0    this       Lscala/actors/remote/SendTo;


public boolean canEqual(java.lang.Object);
  Signature: (Ljava/lang/Object;)Z
  Code:
   Stack=1, Locals=2, Args_size=2
	aload_1
	instanceof	class scala/actors/remote/SendTo
	ireturn
  Labels:

public java.lang.Object productElement(int);
  Signature: (I)Ljava/lang/Object;
  Code:
   Stack=3, Locals=2, Args_size=2
	iload_1
	tableswitch{ //0 to 2
		0: 57;
		1: 50;
		2: 43;
		default: 28 }
	new	class java/lang/IndexOutOfBoundsException
	dup
	iload_1
	invokestatic	Method scala/runtime/BoxesRunTime.boxToInteger:(I)Ljava/lang/Integer;
	invokevirtual	Method java/lang/Object.toString:()Ljava/lang/String;
	invokespecial	Method java/lang/IndexOutOfBoundsException."<init>":(Ljava/lang/String;)V
	athrow
	aload_0
	invokevirtual	Method session:()Lscala/Symbol;
	goto	l1 // areturn
	aload_0
	invokevirtual	Method msg:()Ljava/lang/Object;
	goto	l1 // areturn
	aload_0
	invokevirtual	Method a:()Lscala/actors/OutputChannel;
l1	areturn
  Labels:
   	l1 = 61 // areturn

public int productArity();
  Signature: ()I
  Code:
   Stack=1, Locals=1, Args_size=1
	iconst_3
	ireturn
  Labels:

public java.lang.String productPrefix();
  Signature: ()Ljava/lang/String;
  Code:
   Stack=1, Locals=1, Args_size=1
	ldc	String SendTo
	areturn
  Labels:

public boolean equals(java.lang.Object);
  Signature: (Ljava/lang/Object;)Z
  Code:
   Stack=4, Locals=6, Args_size=2
	aload_0
	aload_1
	if_acmpeq	l1 // iconst_1
	aload_1
	instanceof	class scala/actors/remote/SendTo
	ifeq	l2 // iconst_0
	aload_1
	checkcast	class scala/actors/remote/SendTo
	astore_2
	aload_2
	invokevirtual	Method a:()Lscala/actors/OutputChannel;
	astore_3
	aload_2
	invokevirtual	Method msg:()Ljava/lang/Object;
	astore	4
	aload_2
	invokevirtual	Method session:()Lscala/Symbol;
	astore	5
	aload_0
	aload_3
	aload	4
	aload	5
	invokespecial	Method gd4$1:(Lscala/actors/OutputChannel;Ljava/lang/Object;Lscala/Symbol;)Z
	ifeq	l3 // iconst_0
	aload_1
	checkcast	class scala/actors/remote/SendTo
	aload_0
	invokeinterface	InterfaceMethod scala/Equals.canEqual:(Ljava/lang/Object;)Z
	goto	l4 // ifeq
l3	iconst_0
	goto	l4 // ifeq
l2	iconst_0
l4	ifeq	l5 // iconst_0
l1	iconst_1
	goto	l6 // ireturn
l5	iconst_0
l6	ireturn
  Labels:
   	l3 = 59 // iconst_0
   	l2 = 63 // iconst_0
   	l4 = 64 // ifeq
   	l1 = 67 // iconst_1
   	l5 = 71 // iconst_0
   	l6 = 72 // ireturn
  LocalVariableTable: 
   Start  Length  Slot  Name   Signature
   0      73      0    this       Lscala/actors/remote/SendTo;
   17      46      2    temp20       Lscala/actors/remote/SendTo;
   22      41      3    temp21       Lscala/actors/OutputChannel;
   28      35      4    temp22       Ljava/lang/Object;
   34      29      5    temp23       Lscala/Symbol;


public java.lang.String toString();
  Signature: ()Ljava/lang/String;
  Code:
   Stack=2, Locals=1, Args_size=1
	getstatic	Field scala/runtime/ScalaRunTime$.MODULE$:Lscala/runtime/ScalaRunTime$;
	aload_0
	invokevirtual	Method scala/runtime/ScalaRunTime$._toString:(Lscala/Product;)Ljava/lang/String;
	areturn
  Labels:

public int hashCode();
  Signature: ()I
  Code:
   Stack=2, Locals=1, Args_size=1
	getstatic	Field scala/runtime/ScalaRunTime$.MODULE$:Lscala/runtime/ScalaRunTime$;
	aload_0
	invokevirtual	Method scala/runtime/ScalaRunTime$._hashCode:(Lscala/Product;)I
	ireturn
  Labels:

public scala.actors.remote.SendTo copy(scala.actors.OutputChannel, java.lang.Object, scala.Symbol);
  Signature: (Lscala/actors/OutputChannel;Ljava/lang/Object;Lscala/Symbol;)Lscala/actors/remote/SendTo;
  Code:
   Stack=5, Locals=4, Args_size=4
	new	class scala/actors/remote/SendTo
	dup
	aload_1
	aload_2
	aload_3
	invokespecial	Method "<init>":(Lscala/actors/OutputChannel;Ljava/lang/Object;Lscala/Symbol;)V
	areturn
  Labels:
  LocalVariableTable: 
   Start  Length  Slot  Name   Signature
   0      11      0    this       Lscala/actors/remote/SendTo;
   0      11      1    a       Lscala/actors/OutputChannel;
   0      11      2    msg       Ljava/lang/Object;
   0      11      3    session       Lscala/Symbol;


public scala.Symbol session();
  Signature: ()Lscala/Symbol;
  Code:
   Stack=1, Locals=1, Args_size=1
	aload_0
	getfield	Field session:Lscala/Symbol;
	areturn
  Labels:

public java.lang.Object msg();
  Signature: ()Ljava/lang/Object;
  Code:
   Stack=1, Locals=1, Args_size=1
	aload_0
	getfield	Field msg:Ljava/lang/Object;
	areturn
  Labels:

public scala.actors.OutputChannel a();
  Signature: ()Lscala/actors/OutputChannel;
  Code:
   Stack=1, Locals=1, Args_size=1
	aload_0
	getfield	Field a:Lscala/actors/OutputChannel;
	areturn
  Labels:
  Signature: length = 0x2
   00 FFFFFF81 

public scala.actors.OutputChannel copy$default$1();
  Signature: ()Lscala/actors/OutputChannel;
  Code:
   Stack=1, Locals=1, Args_size=1
	aload_0
	invokevirtual	Method a:()Lscala/actors/OutputChannel;
	areturn
  Labels:

public java.lang.Object copy$default$2();
  Signature: ()Ljava/lang/Object;
  Code:
   Stack=1, Locals=1, Args_size=1
	aload_0
	invokevirtual	Method msg:()Ljava/lang/Object;
	areturn
  Labels:

public scala.Symbol copy$default$3();
  Signature: ()Lscala/Symbol;
  Code:
   Stack=1, Locals=1, Args_size=1
	aload_0
	invokevirtual	Method session:()Lscala/Symbol;
	areturn
  Labels:

public scala.collection.Iterator productElements();
  Signature: ()Lscala/collection/Iterator;
  Code:
   Stack=1, Locals=1, Args_size=1
	aload_0
	invokestatic	Method scala/Product$class.productElements:(Lscala/Product;)Lscala/collection/Iterator;
	areturn
  Labels:
  Deprecated: true

public scala.collection.Iterator productIterator();
  Signature: ()Lscala/collection/Iterator;
  Code:
   Stack=1, Locals=1, Args_size=1
	aload_0
	invokestatic	Method scala/Product$class.productIterator:(Lscala/Product;)Lscala/collection/Iterator;
	areturn
  Labels:

}

