Compiled from "NetKernel.scala"
public class scala.actors.remote.SendTo extends java.lang.Object implements scala.ScalaObject,scala.Product,java.io.Serializable
  SourceFile: "NetKernel.scala"
  ScalaSig: length = 0x3D7
   05 00 FFFFFF81 0D 06 08 01 02 FFFFFF84 FFFFFF80 FFFFFF80 FFFFFF80 40 09 02 06
   53 65 6E 64 54 6F 0A 02 03 04 01 06 72 65 6D 6F
   74 65 0A 02 05 06 01 06 61 63 74 6F 72 73 0A 01
   07 01 05 73 63 61 6C 61 03 00 13 04 00 0A 12 16
   10 02 0B 10 0D 01 0C 0A 02 0D 0E 01 04 6C 61 6E
   67 0A 01 0F 01 04 6A 61 76 61 09 02 11 0C 02 06
   4F 62 6A 65 63 74 10 02 13 14 0D 01 06 09 02 15
   06 02 0B 53 63 61 6C 61 4F 62 6A 65 63 74 10 02
   13 17 09 02 18 06 02 07 50 72 6F 64 75 63 74 08
   08 1A 00 FFFFFF82 FFFFFFCA FFFFFF80 FFFFFF84 00 1B 01 01 61 15 01 1C 10
   03 1D 1E 20 0D 01 04 09 02 1F 04 02 0D 4F 75 74
   70 75 74 43 68 61 6E 6E 65 6C 10 02 13 21 09 02
   22 06 02 03 41 6E 79 08 08 24 00 FFFFFF82 FFFFFF88 FFFFFFA0 FFFFFF80 04
   1C 01 02 61 20 08 08 26 00 FFFFFF82 FFFFFFCA FFFFFF80 FFFFFF84 00 27 01
   03 6D 73 67 15 01 20 08 08 29 00 FFFFFF82 FFFFFF88 FFFFFFA0 FFFFFF80 04
   20 01 04 6D 73 67 20 08 08 2B 00 FFFFFF82 FFFFFFCA FFFFFF80 FFFFFF84 00
   2C 01 07 73 65 73 73 69 6F 6E 15 01 2D 10 02 13
   2E 09 02 2F 06 02 06 53 79 6D 62 6F 6C 08 08 31
   00 FFFFFF82 FFFFFF88 FFFFFFA0 FFFFFF80 04 2D 01 08 73 65 73 73 69 6F 6E
   20 08 05 33 00 FFFFFF84 00 34 01 06 3C 69 6E 69 74 3E
   14 04 35 37 38 39 10 02 36 00 0D 01 02 08 05 1A
   32 FFFFFFC0 00 1C 08 05 26 32 FFFFFFC0 00 20 08 05 2B 32 FFFFFFC0
   00 2D 08 07 3B 00 FFFFFF81 FFFFFF80 FFFFFF84 00 3C 01 04 63 6F 70
   79 14 04 35 3D 40 43 08 08 3E 1A 3A FFFFFF90 FFFFFF80 FFFFFFC0 00
   1C 08 07 3F 00 FFFFFF91 FFFFFF80 FFFFFF84 00 1B 01 0E 63 6F 70 79
   24 64 65 66 61 75 6C 74 24 31 08 08 41 26 3A FFFFFF90
   FFFFFF80 FFFFFFC0 00 20 08 07 42 00 FFFFFF91 FFFFFF80 FFFFFF84 00 27 01 0E 63
   6F 70 79 24 64 65 66 61 75 6C 74 24 32 08 08 44
   2B 3A FFFFFF90 FFFFFF80 FFFFFFC0 00 2D 08 07 45 00 FFFFFF91 FFFFFF80 FFFFFF84 00 2C
   01 0E 63 6F 70 79 24 64 65 66 61 75 6C 74 24 33
   08 08 47 00 FFFFFF84 FFFFFF80 FFFFFF80 FFFFFF84 20 48 01 08 68 61 73 68
   43 6F 64 65 14 01 49 10 02 13 4A 09 02 4B 06 02
   03 49 6E 74 08 08 4D 00 FFFFFF84 FFFFFF80 FFFFFF80 FFFFFF84 20 4E 01 08
   74 6F 53 74 72 69 6E 67 14 01 4F 10 02 50 53 0E
   02 13 51 09 02 52 06 01 06 50 72 65 64 65 66 09
   02 54 55 02 06 53 74 72 69 6E 67 0A 02 52 06 08
   08 57 00 FFFFFF84 FFFFFF80 FFFFFF80 FFFFFF84 20 58 01 06 65 71 75 61 6C
   73 14 02 59 5C 10 02 13 5A 09 02 5B 06 02 07 42
   6F 6F 6C 65 61 6E 08 07 5D 56 FFFFFF81 FFFFFF80 FFFFFFC0 00 20 01
   03 78 24 31 08 08 5F 00 FFFFFF84 FFFFFF80 FFFFFF80 FFFFFF84 20 60 01 0D
   70 72 6F 64 75 63 74 50 72 65 66 69 78 15 01 61
   10 02 0B 62 09 02 54 0C 08 08 64 00 FFFFFF84 FFFFFF80 FFFFFF80 FFFFFF84
   20 65 01 0C 70 72 6F 64 75 63 74 41 72 69 74 79
   15 01 49 08 08 67 00 FFFFFF84 FFFFFF80 FFFFFF80 FFFFFF84 20 68 01 0E 70
   72 6F 64 75 63 74 45 6C 65 6D 65 6E 74 14 02 20
   69 08 07 5D 66 FFFFFF81 FFFFFF80 FFFFFFC0 00 49 08 08 6B 00 FFFFFF84 FFFFFF80
   FFFFFF80 FFFFFF84 20 6C 01 08 63 61 6E 45 71 75 61 6C 14 02
   59 6D 08 07 5D 6A FFFFFF81 FFFFFF80 FFFFFFC0 00 20 28 02 00 6F 10
   02 13 70 09 02 71 06 02 0C 73 65 72 69 61 6C 69
   7A 61 62 6C 65 07 07 73 02 FFFFFF81 FFFFFF80 FFFFFF88 02 74 01 06
   53 65 6E 64 54 6F 10 02 36 75 06 08 01 02 FFFFFF84 FFFFFF81
   FFFFFF80 FFFFFF88 02 76 13 04 75 0A 77 12 10 06 13 78 1C 20
   2D 35 09 02 79 06 02 09 46 75 6E 63 74 69 6F 6E
   33 08 05 33 75 FFFFFF84 00 7B 14 01 74 08 07 7D 75 FFFFFF81
   FFFFFF80 FFFFFF84 40 7E 01 05 61 70 70 6C 79 14 06 35 7F FFFFFF81
   00 FFFFFF81 01 08 05 1A 7C FFFFFFC0 00 1C 08 05 26 7C FFFFFFC0 00
   20 08 05 2B 7C FFFFFFC0 00 2D 08 09 FFFFFF81 03 75 FFFFFF81 FFFFFF80 FFFFFF84
   40 FFFFFF81 04 01 07 75 6E 61 70 70 6C 79 14 04 FFFFFF81 05
   FFFFFF81 0B 10 05 13 FFFFFF81 06 FFFFFF81 08 09 03 FFFFFF81 07 06 02 04
   53 6F 6D 65 10 06 13 FFFFFF81 09 1C 20 2D 09 03 FFFFFF81 0A
   06 02 06 54 75 70 6C 65 33 08 07 FFFFFF81 0C FFFFFF81 02 FFFFFFC0
   00 35 01 03 78 24 30 
  minor version: 0
  major version: 49
  Constant pool:
const #1 = Asciz	SourceFile;
const #2 = Asciz	NetKernel.scala;
const #3 = Asciz	session;
const #4 = Asciz	Lscala/Symbol;;
const #5 = Asciz	msg;
const #6 = Asciz	Ljava/lang/Object;;
const #7 = Asciz	a;
const #8 = Asciz	Lscala/actors/OutputChannel;;
const #9 = Asciz	Lscala/actors/OutputChannel<Ljava/lang/Object;>;;
const #10 = Asciz	Signature;
const #11 = Asciz	<init>;
const #12 = Asciz	(Lscala/actors/OutputChannel;Ljava/lang/Object;Lscala/Symbol;)V;
const #13 = Asciz	Code;
const #14 = Asciz	LineNumberTable;
const #15 = Asciz	scala/actors/remote/SendTo;
const #16 = class	#15;	//  scala/actors/remote/SendTo
const #17 = NameAndType	#7:#8;//  a:Lscala/actors/OutputChannel;
const #18 = Field	#16.#17;	//  scala/actors/remote/SendTo.a:Lscala/actors/OutputChannel;
const #19 = NameAndType	#5:#6;//  msg:Ljava/lang/Object;
const #20 = Field	#16.#19;	//  scala/actors/remote/SendTo.msg:Ljava/lang/Object;
const #21 = NameAndType	#3:#4;//  session:Lscala/Symbol;
const #22 = Field	#16.#21;	//  scala/actors/remote/SendTo.session:Lscala/Symbol;
const #23 = Asciz	java/lang/Object;
const #24 = class	#23;	//  java/lang/Object
const #25 = Asciz	()V;
const #26 = NameAndType	#11:#25;//  "<init>":()V
const #27 = Method	#24.#26;	//  java/lang/Object."<init>":()V
const #28 = Asciz	scala/Product$class;
const #29 = class	#28;	//  scala/Product$class
const #30 = Asciz	$init$;
const #31 = Asciz	(Lscala/Product;)V;
const #32 = NameAndType	#30:#31;//  $init$:(Lscala/Product;)V
const #33 = Method	#29.#32;	//  scala/Product$class.$init$:(Lscala/Product;)V
const #34 = Asciz	this;
const #35 = Asciz	Lscala/actors/remote/SendTo;;
const #36 = Asciz	LocalVariableTable;
const #37 = Asciz	(Lscala/actors/OutputChannel<Ljava/lang/Object;>;Ljava/lang/Object;Lscala/Symbol;)V;
const #38 = Asciz	gd4$1;
const #39 = Asciz	(Lscala/Symbol;Ljava/lang/Object;Lscala/actors/OutputChannel;)Z;
const #40 = Asciz	()Lscala/actors/OutputChannel;;
const #41 = NameAndType	#7:#40;//  a:()Lscala/actors/OutputChannel;
const #42 = Method	#16.#41;	//  scala/actors/remote/SendTo.a:()Lscala/actors/OutputChannel;
const #43 = Asciz	equals;
const #44 = Asciz	(Ljava/lang/Object;)Z;
const #45 = NameAndType	#43:#44;//  equals:(Ljava/lang/Object;)Z
const #46 = Method	#24.#45;	//  java/lang/Object.equals:(Ljava/lang/Object;)Z
const #47 = Asciz	()Ljava/lang/Object;;
const #48 = NameAndType	#5:#47;//  msg:()Ljava/lang/Object;
const #49 = Method	#16.#48;	//  scala/actors/remote/SendTo.msg:()Ljava/lang/Object;
const #50 = Asciz	scala/runtime/BoxesRunTime;
const #51 = class	#50;	//  scala/runtime/BoxesRunTime
const #52 = Asciz	(Ljava/lang/Object;Ljava/lang/Object;)Z;
const #53 = NameAndType	#43:#52;//  equals:(Ljava/lang/Object;Ljava/lang/Object;)Z
const #54 = Method	#51.#53;	//  scala/runtime/BoxesRunTime.equals:(Ljava/lang/Object;Ljava/lang/Object;)Z
const #55 = Asciz	()Lscala/Symbol;;
const #56 = NameAndType	#3:#55;//  session:()Lscala/Symbol;
const #57 = Method	#16.#56;	//  scala/actors/remote/SendTo.session:()Lscala/Symbol;
const #58 = Asciz	canEqual;
const #59 = Asciz	productElement;
const #60 = Asciz	(I)Ljava/lang/Object;;
const #61 = Asciz	java/lang/IndexOutOfBoundsException;
const #62 = class	#61;	//  java/lang/IndexOutOfBoundsException
const #63 = Asciz	boxToInteger;
const #64 = Asciz	(I)Ljava/lang/Integer;;
const #65 = NameAndType	#63:#64;//  boxToInteger:(I)Ljava/lang/Integer;
const #66 = Method	#51.#65;	//  scala/runtime/BoxesRunTime.boxToInteger:(I)Ljava/lang/Integer;
const #67 = Asciz	toString;
const #68 = Asciz	()Ljava/lang/String;;
const #69 = NameAndType	#67:#68;//  toString:()Ljava/lang/String;
const #70 = Method	#24.#69;	//  java/lang/Object.toString:()Ljava/lang/String;
const #71 = Asciz	(Ljava/lang/String;)V;
const #72 = NameAndType	#11:#71;//  "<init>":(Ljava/lang/String;)V
const #73 = Method	#62.#72;	//  java/lang/IndexOutOfBoundsException."<init>":(Ljava/lang/String;)V
const #74 = Asciz	temp24;
const #75 = Asciz	I;
const #76 = Asciz	productArity;
const #77 = Asciz	()I;
const #78 = Asciz	productPrefix;
const #79 = Asciz	SendTo;
const #80 = String	#79;	//  SendTo
const #81 = NameAndType	#38:#39;//  gd4$1:(Lscala/Symbol;Ljava/lang/Object;Lscala/actors/OutputChannel;)Z
const #82 = Method	#16.#81;	//  scala/actors/remote/SendTo.gd4$1:(Lscala/Symbol;Ljava/lang/Object;Lscala/actors/OutputChannel;)Z
const #83 = Asciz	scala/Product;
const #84 = class	#83;	//  scala/Product
const #85 = NameAndType	#58:#44;//  canEqual:(Ljava/lang/Object;)Z
const #86 = InterfaceMethod	#84.#85;	//  scala/Product.canEqual:(Ljava/lang/Object;)Z
const #87 = Asciz	temp19;
const #88 = Asciz	temp20;
const #89 = Asciz	temp21;
const #90 = Asciz	temp22;
const #91 = Asciz	temp23;
const #92 = Asciz	session$2;
const #93 = Asciz	msg$1;
const #94 = Asciz	a$2;
const #95 = Asciz	scala/runtime/ScalaRunTime$;
const #96 = class	#95;	//  scala/runtime/ScalaRunTime$
const #97 = Asciz	MODULE$;
const #98 = Asciz	Lscala/runtime/ScalaRunTime$;;
const #99 = NameAndType	#97:#98;//  MODULE$:Lscala/runtime/ScalaRunTime$;
const #100 = Field	#96.#99;	//  scala/runtime/ScalaRunTime$.MODULE$:Lscala/runtime/ScalaRunTime$;
const #101 = Asciz	_toString;
const #102 = Asciz	(Lscala/Product;)Ljava/lang/String;;
const #103 = NameAndType	#101:#102;//  _toString:(Lscala/Product;)Ljava/lang/String;
const #104 = Method	#96.#103;	//  scala/runtime/ScalaRunTime$._toString:(Lscala/Product;)Ljava/lang/String;
const #105 = Asciz	hashCode;
const #106 = Asciz	_hashCode;
const #107 = Asciz	(Lscala/Product;)I;
const #108 = NameAndType	#106:#107;//  _hashCode:(Lscala/Product;)I
const #109 = Method	#96.#108;	//  scala/runtime/ScalaRunTime$._hashCode:(Lscala/Product;)I
const #110 = Asciz	copy$default$1;
const #111 = Asciz	copy$default$2;
const #112 = Asciz	copy$default$3;
const #113 = Asciz	copy;
const #114 = Asciz	(Lscala/actors/OutputChannel;Ljava/lang/Object;Lscala/Symbol;)Lscala/actors/remote/SendTo;;
const #115 = NameAndType	#11:#12;//  "<init>":(Lscala/actors/OutputChannel;Ljava/lang/Object;Lscala/Symbol;)V
const #116 = Method	#16.#115;	//  scala/actors/remote/SendTo."<init>":(Lscala/actors/OutputChannel;Ljava/lang/Object;Lscala/Symbol;)V
const #117 = Asciz	()Lscala/actors/OutputChannel<Ljava/lang/Object;>;;
const #118 = Asciz	productElements;
const #119 = Asciz	()Lscala/collection/Iterator;;
const #120 = Asciz	(Lscala/Product;)Lscala/collection/Iterator;;
const #121 = NameAndType	#118:#120;//  productElements:(Lscala/Product;)Lscala/collection/Iterator;
const #122 = Method	#29.#121;	//  scala/Product$class.productElements:(Lscala/Product;)Lscala/collection/Iterator;
const #123 = Asciz	productIterator;
const #124 = NameAndType	#123:#120;//  productIterator:(Lscala/Product;)Lscala/collection/Iterator;
const #125 = Method	#29.#124;	//  scala/Product$class.productIterator:(Lscala/Product;)Lscala/collection/Iterator;
const #126 = Asciz	ScalaSig;
const #127 = Asciz	scala/ScalaObject;
const #128 = class	#127;	//  scala/ScalaObject
const #129 = Asciz	java/io/Serializable;
const #130 = class	#129;	//  java/io/Serializable

{
public scala.actors.remote.SendTo(scala.actors.OutputChannel, java.lang.Object, scala.Symbol);
  Code:
   Stack=2, Locals=4, Args_size=4
   0:	aload_0
   1:	aload_1
   2:	putfield	#18; //Field a:Lscala/actors/OutputChannel;
   5:	aload_0
   6:	aload_2
   7:	putfield	#20; //Field msg:Ljava/lang/Object;
   10:	aload_0
   11:	aload_3
   12:	putfield	#22; //Field session:Lscala/Symbol;
   15:	aload_0
   16:	invokespecial	#27; //Method java/lang/Object."<init>":()V
   19:	aload_0
   20:	invokestatic	#33; //Method scala/Product$class.$init$:(Lscala/Product;)V
   23:	return
  LineNumberTable: 
   line 21: 0

  LocalVariableTable: 
   Start  Length  Slot  Name   Signature
   0      24      0    this       Lscala/actors/remote/SendTo;
   0      24      1    a       Lscala/actors/OutputChannel;
   0      24      2    msg       Ljava/lang/Object;
   0      24      3    session       Lscala/Symbol;

  Signature: length = 0x2
   00 25 

public boolean canEqual(java.lang.Object);
  Code:
   Stack=1, Locals=2, Args_size=2
   0:	aload_1
   1:	instanceof	#16; //class scala/actors/remote/SendTo
   4:	ireturn
  LineNumberTable: 
   line 21: 0


public java.lang.Object productElement(int);
  Code:
   Stack=3, Locals=3, Args_size=2
   0:	iload_1
   1:	istore_2
   2:	iload_2
   3:	tableswitch{ //0 to 2
		0: 57;
		1: 50;
		2: 43;
		default: 28 }
   28:	new	#62; //class java/lang/IndexOutOfBoundsException
   31:	dup
   32:	iload_1
   33:	invokestatic	#66; //Method scala/runtime/BoxesRunTime.boxToInteger:(I)Ljava/lang/Integer;
   36:	invokevirtual	#70; //Method java/lang/Object.toString:()Ljava/lang/String;
   39:	invokespecial	#73; //Method java/lang/IndexOutOfBoundsException."<init>":(Ljava/lang/String;)V
   42:	athrow
   43:	aload_0
   44:	invokevirtual	#57; //Method session:()Lscala/Symbol;
   47:	goto	61
   50:	aload_0
   51:	invokevirtual	#49; //Method msg:()Ljava/lang/Object;
   54:	goto	61
   57:	aload_0
   58:	invokevirtual	#42; //Method a:()Lscala/actors/OutputChannel;
   61:	areturn
  LineNumberTable: 
   line 21: 0

  LocalVariableTable: 
   Start  Length  Slot  Name   Signature
   0      62      0    this       Lscala/actors/remote/SendTo;
   2      60      2    temp24       I


public int productArity();
  Code:
   Stack=1, Locals=1, Args_size=1
   0:	iconst_3
   1:	ireturn
  LineNumberTable: 
   line 21: 0


public java.lang.String productPrefix();
  Code:
   Stack=1, Locals=1, Args_size=1
   0:	ldc	#80; //String SendTo
   2:	areturn
  LineNumberTable: 
   line 21: 0


public boolean equals(java.lang.Object);
  Code:
   Stack=4, Locals=10, Args_size=2
   0:	aload_0
   1:	aload_1
   2:	if_acmpeq	91
   5:	aload_1
   6:	astore_2
   7:	aload_2
   8:	instanceof	#16; //class scala/actors/remote/SendTo
   11:	ifeq	87
   14:	aload_2
   15:	checkcast	#16; //class scala/actors/remote/SendTo
   18:	astore_3
   19:	aload_3
   20:	invokevirtual	#42; //Method a:()Lscala/actors/OutputChannel;
   23:	astore	4
   25:	aload_3
   26:	invokevirtual	#49; //Method msg:()Ljava/lang/Object;
   29:	astore	5
   31:	aload_3
   32:	invokevirtual	#57; //Method session:()Lscala/Symbol;
   35:	astore	6
   37:	aload	6
   39:	astore	7
   41:	aload	5
   43:	astore	8
   45:	aload	4
   47:	astore	9
   49:	aload_0
   50:	aload	7
   52:	aload	8
   54:	aload	9
   56:	invokespecial	#82; //Method gd4$1:(Lscala/Symbol;Ljava/lang/Object;Lscala/actors/OutputChannel;)Z
   59:	ifeq	83
   62:	aload	6
   64:	astore	7
   66:	aload	5
   68:	astore	8
   70:	aload_1
   71:	checkcast	#16; //class scala/actors/remote/SendTo
   74:	aload_0
   75:	invokeinterface	#86,  2; //InterfaceMethod scala/Product.canEqual:(Ljava/lang/Object;)Z
   80:	goto	88
   83:	iconst_0
   84:	goto	88
   87:	iconst_0
   88:	ifeq	95
   91:	iconst_1
   92:	goto	96
   95:	iconst_0
   96:	ireturn
  LineNumberTable: 
   line 21: 0
   line 875: 83
   line 21: 88

  LocalVariableTable: 
   Start  Length  Slot  Name   Signature
   0      97      0    this       Lscala/actors/remote/SendTo;
   7      84      2    temp19       Ljava/lang/Object;
   19      68      3    temp20       Lscala/actors/remote/SendTo;
   25      62      4    temp21       Lscala/actors/OutputChannel;
   31      56      5    temp22       Ljava/lang/Object;
   37      50      6    temp23       Lscala/Symbol;
   41      21      7    session$2       Lscala/Symbol;
   66      14      7    session$2       Lscala/Symbol;
   62      25      7    session$2       Lscala/Symbol;
   45      17      8    msg$1       Ljava/lang/Object;
   70      10      8    msg$1       Ljava/lang/Object;
   62      25      8    msg$1       Ljava/lang/Object;
   49      38      9    a$2       Lscala/actors/OutputChannel;


public java.lang.String toString();
  Code:
   Stack=2, Locals=1, Args_size=1
   0:	getstatic	#100; //Field scala/runtime/ScalaRunTime$.MODULE$:Lscala/runtime/ScalaRunTime$;
   3:	aload_0
   4:	invokevirtual	#104; //Method scala/runtime/ScalaRunTime$._toString:(Lscala/Product;)Ljava/lang/String;
   7:	areturn
  LineNumberTable: 
   line 21: 0


public int hashCode();
  Code:
   Stack=2, Locals=1, Args_size=1
   0:	getstatic	#100; //Field scala/runtime/ScalaRunTime$.MODULE$:Lscala/runtime/ScalaRunTime$;
   3:	aload_0
   4:	invokevirtual	#109; //Method scala/runtime/ScalaRunTime$._hashCode:(Lscala/Product;)I
   7:	ireturn
  LineNumberTable: 
   line 21: 0


public scala.actors.OutputChannel copy$default$1();
  Code:
   Stack=1, Locals=1, Args_size=1
   0:	aload_0
   1:	invokevirtual	#42; //Method a:()Lscala/actors/OutputChannel;
   4:	areturn
  LineNumberTable: 
   line 21: 0


public java.lang.Object copy$default$2();
  Code:
   Stack=1, Locals=1, Args_size=1
   0:	aload_0
   1:	invokevirtual	#49; //Method msg:()Ljava/lang/Object;
   4:	areturn
  LineNumberTable: 
   line 21: 0


public scala.Symbol copy$default$3();
  Code:
   Stack=1, Locals=1, Args_size=1
   0:	aload_0
   1:	invokevirtual	#57; //Method session:()Lscala/Symbol;
   4:	areturn
  LineNumberTable: 
   line 21: 0


public scala.actors.remote.SendTo copy(scala.actors.OutputChannel, java.lang.Object, scala.Symbol);
  Code:
   Stack=5, Locals=4, Args_size=4
   0:	new	#16; //class scala/actors/remote/SendTo
   3:	dup
   4:	aload_1
   5:	aload_2
   6:	aload_3
   7:	invokespecial	#116; //Method "<init>":(Lscala/actors/OutputChannel;Ljava/lang/Object;Lscala/Symbol;)V
   10:	areturn
  LineNumberTable: 
   line 21: 0

  LocalVariableTable: 
   Start  Length  Slot  Name   Signature
   0      11      0    this       Lscala/actors/remote/SendTo;
   0      11      1    a       Lscala/actors/OutputChannel;
   0      11      2    msg       Ljava/lang/Object;
   0      11      3    session       Lscala/Symbol;


public scala.Symbol session();
  Code:
   Stack=1, Locals=1, Args_size=1
   0:	aload_0
   1:	getfield	#22; //Field session:Lscala/Symbol;
   4:	areturn
  LineNumberTable: 
   line 21: 0


public java.lang.Object msg();
  Code:
   Stack=1, Locals=1, Args_size=1
   0:	aload_0
   1:	getfield	#20; //Field msg:Ljava/lang/Object;
   4:	areturn
  LineNumberTable: 
   line 21: 0


public scala.actors.OutputChannel a();
  Code:
   Stack=1, Locals=1, Args_size=1
   0:	aload_0
   1:	getfield	#18; //Field a:Lscala/actors/OutputChannel;
   4:	areturn
  LineNumberTable: 
   line 21: 0

  Signature: length = 0x2
   00 75 

public scala.collection.Iterator productElements();
  Code:
   Stack=1, Locals=1, Args_size=1
   0:	aload_0
   1:	invokestatic	#122; //Method scala/Product$class.productElements:(Lscala/Product;)Lscala/collection/Iterator;
   4:	areturn
  LineNumberTable: 
   line 21: 0


public scala.collection.Iterator productIterator();
  Code:
   Stack=1, Locals=1, Args_size=1
   0:	aload_0
   1:	invokestatic	#125; //Method scala/Product$class.productIterator:(Lscala/Product;)Lscala/collection/Iterator;
   4:	areturn
  LineNumberTable: 
   line 21: 0


}

