Compiled from "NetKernel.scala"
public class scala.actors.remote.SendTo extends java.lang.Object implements scala.ScalaObject,scala.Product,java.io.Serializable
  SourceFile: "NetKernel.scala"
  ScalaSig: length = 0x440
   05 00 FFFFFF81 1C 06 08 01 02 FFFFFF84 FFFFFF80 FFFFFF80 FFFFFF80 40 09 02 06
   53 65 6E 64 54 6F 0A 02 03 04 01 06 72 65 6D 6F
   74 65 0A 02 05 06 01 06 61 63 74 6F 72 73 0A 01
   07 01 05 73 63 61 6C 61 03 00 13 04 00 0A 12 16
   10 02 0B 10 0D 01 0C 0A 02 0D 0E 01 04 6C 61 6E
   67 0A 01 0F 01 04 6A 61 76 61 09 02 11 0C 02 06
   4F 62 6A 65 63 74 10 02 13 14 0D 01 06 09 02 15
   06 02 0B 53 63 61 6C 61 4F 62 6A 65 63 74 10 02
   13 17 09 02 18 06 02 07 50 72 6F 64 75 63 74 08
   08 1A 00 FFFFFF82 FFFFFFCA FFFFFF80 FFFFFF84 00 1B 01 01 61 15 01 1C 10
   03 1D 1E 20 0D 01 04 09 02 1F 04 02 0D 4F 75 74
   70 75 74 43 68 61 6E 6E 65 6C 10 02 13 21 09 02
   22 06 02 03 41 6E 79 08 08 24 00 FFFFFF82 FFFFFF88 FFFFFFA0 FFFFFF80 04
   1C 01 02 61 20 08 08 26 00 FFFFFF82 FFFFFFCA FFFFFF80 FFFFFF84 00 27 01
   03 6D 73 67 15 01 20 08 08 29 00 FFFFFF82 FFFFFF88 FFFFFFA0 FFFFFF80 04
   20 01 04 6D 73 67 20 08 08 2B 00 FFFFFF82 FFFFFFCA FFFFFF80 FFFFFF84 00
   2C 01 07 73 65 73 73 69 6F 6E 15 01 2D 10 02 13
   2E 09 02 2F 06 02 06 53 79 6D 62 6F 6C 08 08 31
   00 FFFFFF82 FFFFFF88 FFFFFFA0 FFFFFF80 04 2D 01 08 73 65 73 73 69 6F 6E
   20 08 05 33 00 FFFFFF84 00 34 01 06 3C 69 6E 69 74 3E
   14 04 35 37 38 39 10 02 36 00 0D 01 02 08 05 1A
   32 FFFFFFC0 00 1C 08 05 26 32 FFFFFFC0 00 20 08 05 2B 32 FFFFFFC0
   00 2D 08 07 3B 00 FFFFFF81 FFFFFF80 FFFFFF84 00 3C 01 04 63 6F 70
   79 14 04 35 3D 4B 50 08 08 3E 1A 3A FFFFFF90 FFFFFF80 FFFFFFC0 00
   1C 08 07 3F 00 FFFFFF91 FFFFFF80 FFFFFF84 00 40 01 0E 63 6F 70 79
   24 64 65 66 61 75 6C 74 24 31 15 01 41 2A 02 1C
   42 2B 01 43 10 02 44 49 0D 01 45 0A 02 46 47 01
   09 75 6E 63 68 65 63 6B 65 64 0A 02 48 06 01 0A
   61 6E 6E 6F 74 61 74 69 6F 6E 09 02 4A 45 02 11
   75 6E 63 68 65 63 6B 65 64 56 61 72 69 61 6E 63
   65 08 08 4C 26 3A FFFFFF90 FFFFFF80 FFFFFFC0 00 20 08 07 4D 00 FFFFFF91
   FFFFFF80 FFFFFF84 00 4E 01 0E 63 6F 70 79 24 64 65 66 61 75
   6C 74 24 32 15 01 4F 2A 02 20 42 08 08 51 2B 3A
   FFFFFF90 FFFFFF80 FFFFFFC0 00 2D 08 07 52 00 FFFFFF91 FFFFFF80 FFFFFF84 00 53 01 0E
   63 6F 70 79 24 64 65 66 61 75 6C 74 24 33 15 01
   54 2A 02 2D 42 08 08 56 00 FFFFFF84 FFFFFF80 FFFFFF80 FFFFFF84 20 57 01
   08 68 61 73 68 43 6F 64 65 14 01 58 10 02 13 59
   09 02 5A 06 02 03 49 6E 74 08 08 5C 00 FFFFFF84 FFFFFF80 FFFFFF80
   FFFFFF84 20 5D 01 08 74 6F 53 74 72 69 6E 67 14 01 5E
   10 02 5F 62 0E 02 13 60 09 02 61 06 01 06 50 72
   65 64 65 66 09 02 63 64 02 06 53 74 72 69 6E 67
   0A 02 61 06 08 08 66 00 FFFFFF84 FFFFFF80 FFFFFF80 FFFFFF84 20 67 01 06
   65 71 75 61 6C 73 14 02 68 6B 10 02 13 69 09 02
   6A 06 02 07 42 6F 6F 6C 65 61 6E 08 07 6C 65 FFFFFF81
   FFFFFF80 FFFFFFC0 00 20 01 03 78 24 31 08 08 6E 00 FFFFFF84 FFFFFF80 FFFFFF80
   FFFFFF84 20 6F 01 0D 70 72 6F 64 75 63 74 50 72 65 66
   69 78 15 01 70 10 02 0B 71 09 02 63 0C 08 08 73
   00 FFFFFF84 FFFFFF80 FFFFFF80 FFFFFF84 20 74 01 0C 70 72 6F 64 75 63 74
   41 72 69 74 79 15 01 58 08 08 76 00 FFFFFF84 FFFFFF80 FFFFFF80 FFFFFF84
   20 77 01 0E 70 72 6F 64 75 63 74 45 6C 65 6D 65
   6E 74 14 02 20 78 08 07 6C 75 FFFFFF81 FFFFFF80 FFFFFFC0 00 58 08
   08 7A 00 FFFFFF84 FFFFFF80 FFFFFF80 FFFFFF84 20 7B 01 08 63 61 6E 45 71
   75 61 6C 14 02 68 7C 08 07 6C 79 FFFFFF81 FFFFFF80 FFFFFFC0 00 20
   28 02 00 7E 10 02 13 7F 09 03 FFFFFF81 00 06 02 0C 73
   65 72 69 61 6C 69 7A 61 62 6C 65 07 09 FFFFFF81 02 02
   FFFFFF81 FFFFFF80 FFFFFF88 02 FFFFFF81 03 01 06 53 65 6E 64 54 6F 10 03
   36 FFFFFF81 04 06 09 01 02 FFFFFF84 FFFFFF81 FFFFFF80 FFFFFF88 02 FFFFFF81 05 13 06
   FFFFFF81 04 0A FFFFFF81 06 12 10 07 13 FFFFFF81 07 1C 20 2D 35 09
   03 FFFFFF81 08 06 02 09 46 75 6E 63 74 69 6F 6E 33 08
   07 33 FFFFFF81 04 FFFFFF84 00 FFFFFF81 0A 14 02 FFFFFF81 03 08 0A FFFFFF81 0C
   FFFFFF81 04 FFFFFF81 FFFFFF80 FFFFFF84 40 FFFFFF81 0D 01 05 61 70 70 6C 79 14
   07 35 FFFFFF81 0E FFFFFF81 0F FFFFFF81 10 08 06 1A FFFFFF81 0B FFFFFFC0 00 1C
   08 06 26 FFFFFF81 0B FFFFFFC0 00 20 08 06 2B FFFFFF81 0B FFFFFFC0 00 2D
   08 0A FFFFFF81 12 FFFFFF81 04 FFFFFF81 FFFFFF80 FFFFFF84 40 FFFFFF81 13 01 07 75 6E
   61 70 70 6C 79 14 04 FFFFFF81 14 FFFFFF81 1A 10 05 13 FFFFFF81 15
   FFFFFF81 17 09 03 FFFFFF81 16 06 02 04 53 6F 6D 65 10 06 13
   FFFFFF81 18 1C 20 2D 09 03 FFFFFF81 19 06 02 06 54 75 70 6C
   65 33 08 07 FFFFFF81 1B FFFFFF81 11 FFFFFFC0 00 35 01 03 78 24 30
   
  minor version: 0
  major version: 49
  Constant pool:
const #1 = Asciz	SourceFile;
const #2 = Asciz	NetKernel.scala;
const #3 = Asciz	curry;
const #4 = Asciz	()Lscala/Function1;;
const #5 = Asciz	Code;
const #6 = Asciz	scala/actors/remote/SendTo$;
const #7 = class	#6;	//  scala/actors/remote/SendTo$
const #8 = Asciz	MODULE$;
const #9 = Asciz	Lscala/actors/remote/SendTo$;;
const #10 = NameAndType	#8:#9;//  MODULE$:Lscala/actors/remote/SendTo$;
const #11 = Field	#7.#10;	//  scala/actors/remote/SendTo$.MODULE$:Lscala/actors/remote/SendTo$;
const #12 = NameAndType	#3:#4;//  curry:()Lscala/Function1;
const #13 = Method	#7.#12;	//  scala/actors/remote/SendTo$.curry:()Lscala/Function1;
const #14 = Asciz	session;
const #15 = Asciz	Lscala/Symbol;;
const #16 = Asciz	msg;
const #17 = Asciz	Ljava/lang/Object;;
const #18 = Asciz	a;
const #19 = Asciz	Lscala/actors/OutputChannel;;
const #20 = Asciz	Lscala/actors/OutputChannel<Ljava/lang/Object;>;;
const #21 = Asciz	Signature;
const #22 = Asciz	<init>;
const #23 = Asciz	(Lscala/actors/OutputChannel;Ljava/lang/Object;Lscala/Symbol;)V;
const #24 = Asciz	LineNumberTable;
const #25 = Asciz	scala/actors/remote/SendTo;
const #26 = class	#25;	//  scala/actors/remote/SendTo
const #27 = NameAndType	#18:#19;//  a:Lscala/actors/OutputChannel;
const #28 = Field	#26.#27;	//  scala/actors/remote/SendTo.a:Lscala/actors/OutputChannel;
const #29 = NameAndType	#16:#17;//  msg:Ljava/lang/Object;
const #30 = Field	#26.#29;	//  scala/actors/remote/SendTo.msg:Ljava/lang/Object;
const #31 = NameAndType	#14:#15;//  session:Lscala/Symbol;
const #32 = Field	#26.#31;	//  scala/actors/remote/SendTo.session:Lscala/Symbol;
const #33 = Asciz	java/lang/Object;
const #34 = class	#33;	//  java/lang/Object
const #35 = Asciz	()V;
const #36 = NameAndType	#22:#35;//  "<init>":()V
const #37 = Method	#34.#36;	//  java/lang/Object."<init>":()V
const #38 = Asciz	scala/Product$class;
const #39 = class	#38;	//  scala/Product$class
const #40 = Asciz	$init$;
const #41 = Asciz	(Lscala/Product;)V;
const #42 = NameAndType	#40:#41;//  $init$:(Lscala/Product;)V
const #43 = Method	#39.#42;	//  scala/Product$class.$init$:(Lscala/Product;)V
const #44 = Asciz	this;
const #45 = Asciz	Lscala/actors/remote/SendTo;;
const #46 = Asciz	LocalVariableTable;
const #47 = Asciz	(Lscala/actors/OutputChannel<Ljava/lang/Object;>;Ljava/lang/Object;Lscala/Symbol;)V;
const #48 = Asciz	gd4$1;
const #49 = Asciz	(Lscala/actors/OutputChannel;Ljava/lang/Object;Lscala/Symbol;)Z;
const #50 = Asciz	()Lscala/actors/OutputChannel;;
const #51 = NameAndType	#18:#50;//  a:()Lscala/actors/OutputChannel;
const #52 = Method	#26.#51;	//  scala/actors/remote/SendTo.a:()Lscala/actors/OutputChannel;
const #53 = Asciz	equals;
const #54 = Asciz	(Ljava/lang/Object;)Z;
const #55 = NameAndType	#53:#54;//  equals:(Ljava/lang/Object;)Z
const #56 = Method	#34.#55;	//  java/lang/Object.equals:(Ljava/lang/Object;)Z
const #57 = Asciz	()Ljava/lang/Object;;
const #58 = NameAndType	#16:#57;//  msg:()Ljava/lang/Object;
const #59 = Method	#26.#58;	//  scala/actors/remote/SendTo.msg:()Ljava/lang/Object;
const #60 = Asciz	java/lang/Number;
const #61 = class	#60;	//  java/lang/Number
const #62 = Asciz	java/lang/Character;
const #63 = class	#62;	//  java/lang/Character
const #64 = Asciz	scala/runtime/BoxesRunTime;
const #65 = class	#64;	//  scala/runtime/BoxesRunTime
const #66 = Asciz	equals2;
const #67 = Asciz	(Ljava/lang/Object;Ljava/lang/Object;)Z;
const #68 = NameAndType	#66:#67;//  equals2:(Ljava/lang/Object;Ljava/lang/Object;)Z
const #69 = Method	#65.#68;	//  scala/runtime/BoxesRunTime.equals2:(Ljava/lang/Object;Ljava/lang/Object;)Z
const #70 = Asciz	()Lscala/Symbol;;
const #71 = NameAndType	#14:#70;//  session:()Lscala/Symbol;
const #72 = Method	#26.#71;	//  scala/actors/remote/SendTo.session:()Lscala/Symbol;
const #73 = Asciz	canEqual;
const #74 = Asciz	productElement;
const #75 = Asciz	(I)Ljava/lang/Object;;
const #76 = Asciz	java/lang/IndexOutOfBoundsException;
const #77 = class	#76;	//  java/lang/IndexOutOfBoundsException
const #78 = Asciz	boxToInteger;
const #79 = Asciz	(I)Ljava/lang/Integer;;
const #80 = NameAndType	#78:#79;//  boxToInteger:(I)Ljava/lang/Integer;
const #81 = Method	#65.#80;	//  scala/runtime/BoxesRunTime.boxToInteger:(I)Ljava/lang/Integer;
const #82 = Asciz	toString;
const #83 = Asciz	()Ljava/lang/String;;
const #84 = NameAndType	#82:#83;//  toString:()Ljava/lang/String;
const #85 = Method	#34.#84;	//  java/lang/Object.toString:()Ljava/lang/String;
const #86 = Asciz	(Ljava/lang/String;)V;
const #87 = NameAndType	#22:#86;//  "<init>":(Ljava/lang/String;)V
const #88 = Method	#77.#87;	//  java/lang/IndexOutOfBoundsException."<init>":(Ljava/lang/String;)V
const #89 = Asciz	scala/MatchError;
const #90 = class	#89;	//  scala/MatchError
const #91 = Method	#90.#87;	//  scala/MatchError."<init>":(Ljava/lang/String;)V
const #92 = Asciz	productArity;
const #93 = Asciz	()I;
const #94 = Asciz	productPrefix;
const #95 = Asciz	SendTo;
const #96 = String	#95;	//  SendTo
const #97 = NameAndType	#48:#49;//  gd4$1:(Lscala/actors/OutputChannel;Ljava/lang/Object;Lscala/Symbol;)Z
const #98 = Method	#26.#97;	//  scala/actors/remote/SendTo.gd4$1:(Lscala/actors/OutputChannel;Ljava/lang/Object;Lscala/Symbol;)Z
const #99 = Asciz	scala/Equals;
const #100 = class	#99;	//  scala/Equals
const #101 = NameAndType	#73:#54;//  canEqual:(Ljava/lang/Object;)Z
const #102 = InterfaceMethod	#100.#101;	//  scala/Equals.canEqual:(Ljava/lang/Object;)Z
const #103 = Asciz	temp20;
const #104 = Asciz	temp21;
const #105 = Asciz	temp22;
const #106 = Asciz	temp23;
const #107 = Asciz	scala/runtime/ScalaRunTime$;
const #108 = class	#107;	//  scala/runtime/ScalaRunTime$
const #109 = Asciz	Lscala/runtime/ScalaRunTime$;;
const #110 = NameAndType	#8:#109;//  MODULE$:Lscala/runtime/ScalaRunTime$;
const #111 = Field	#108.#110;	//  scala/runtime/ScalaRunTime$.MODULE$:Lscala/runtime/ScalaRunTime$;
const #112 = Asciz	_toString;
const #113 = Asciz	(Lscala/Product;)Ljava/lang/String;;
const #114 = NameAndType	#112:#113;//  _toString:(Lscala/Product;)Ljava/lang/String;
const #115 = Method	#108.#114;	//  scala/runtime/ScalaRunTime$._toString:(Lscala/Product;)Ljava/lang/String;
const #116 = Asciz	hashCode;
const #117 = Asciz	_hashCode;
const #118 = Asciz	(Lscala/Product;)I;
const #119 = NameAndType	#117:#118;//  _hashCode:(Lscala/Product;)I
const #120 = Method	#108.#119;	//  scala/runtime/ScalaRunTime$._hashCode:(Lscala/Product;)I
const #121 = Asciz	copy;
const #122 = Asciz	(Lscala/actors/OutputChannel;Ljava/lang/Object;Lscala/Symbol;)Lscala/actors/remote/SendTo;;
const #123 = NameAndType	#22:#23;//  "<init>":(Lscala/actors/OutputChannel;Ljava/lang/Object;Lscala/Symbol;)V
const #124 = Method	#26.#123;	//  scala/actors/remote/SendTo."<init>":(Lscala/actors/OutputChannel;Ljava/lang/Object;Lscala/Symbol;)V
const #125 = Asciz	()Lscala/actors/OutputChannel<Ljava/lang/Object;>;;
const #126 = Asciz	copy$default$1;
const #127 = Asciz	copy$default$2;
const #128 = Asciz	copy$default$3;
const #129 = Asciz	productElements;
const #130 = Asciz	()Lscala/collection/Iterator;;
const #131 = Asciz	(Lscala/Product;)Lscala/collection/Iterator;;
const #132 = NameAndType	#129:#131;//  productElements:(Lscala/Product;)Lscala/collection/Iterator;
const #133 = Method	#39.#132;	//  scala/Product$class.productElements:(Lscala/Product;)Lscala/collection/Iterator;
const #134 = Asciz	productIterator;
const #135 = NameAndType	#134:#131;//  productIterator:(Lscala/Product;)Lscala/collection/Iterator;
const #136 = Method	#39.#135;	//  scala/Product$class.productIterator:(Lscala/Product;)Lscala/collection/Iterator;
const #137 = Asciz	ScalaSig;
const #138 = Asciz	scala/ScalaObject;
const #139 = class	#138;	//  scala/ScalaObject
const #140 = Asciz	scala/Product;
const #141 = class	#140;	//  scala/Product
const #142 = Asciz	java/io/Serializable;
const #143 = class	#142;	//  java/io/Serializable

{
public static final scala.Function1 curry();
  Code:
   Stack=1, Locals=0, Args_size=0
   0:	getstatic	#11; //Field scala/actors/remote/SendTo$.MODULE$:Lscala/actors/remote/SendTo$;
   3:	invokevirtual	#13; //Method scala/actors/remote/SendTo$.curry:()Lscala/Function1;
   6:	areturn

public scala.actors.remote.SendTo(scala.actors.OutputChannel, java.lang.Object, scala.Symbol);
  Code:
   Stack=2, Locals=4, Args_size=4
   0:	aload_0
   1:	aload_1
   2:	putfield	#28; //Field a:Lscala/actors/OutputChannel;
   5:	aload_0
   6:	aload_2
   7:	putfield	#30; //Field msg:Ljava/lang/Object;
   10:	aload_0
   11:	aload_3
   12:	putfield	#32; //Field session:Lscala/Symbol;
   15:	aload_0
   16:	invokespecial	#37; //Method java/lang/Object."<init>":()V
   19:	aload_0
   20:	invokestatic	#43; //Method scala/Product$class.$init$:(Lscala/Product;)V
   23:	return
  LineNumberTable: 
   line 21: 0

  LocalVariableTable: 
   Start  Length  Slot  Name   Signature
   0      24      0    this       Lscala/actors/remote/SendTo;
   0      24      1    a       Lscala/actors/OutputChannel;
   0      24      2    msg       Ljava/lang/Object;
   0      24      3    session       Lscala/Symbol;

  Signature: length = 0x2
   00 2F 

public boolean canEqual(java.lang.Object);
  Code:
   Stack=1, Locals=2, Args_size=2
   0:	aload_1
   1:	instanceof	#26; //class scala/actors/remote/SendTo
   4:	ireturn
  LineNumberTable: 
   line 21: 0


public java.lang.Object productElement(int);
  Code:
   Stack=3, Locals=2, Args_size=2
   0:	iload_1
   1:	tableswitch{ //0 to 2
		0: 114;
		1: 88;
		2: 62;
		default: 28 }
   28:	iconst_1
   29:	ifeq	47
   32:	new	#77; //class java/lang/IndexOutOfBoundsException
   35:	dup
   36:	iload_1
   37:	invokestatic	#81; //Method scala/runtime/BoxesRunTime.boxToInteger:(I)Ljava/lang/Integer;
   40:	invokevirtual	#85; //Method java/lang/Object.toString:()Ljava/lang/String;
   43:	invokespecial	#88; //Method java/lang/IndexOutOfBoundsException."<init>":(Ljava/lang/String;)V
   46:	athrow
   47:	new	#90; //class scala/MatchError
   50:	dup
   51:	iload_1
   52:	invokestatic	#81; //Method scala/runtime/BoxesRunTime.boxToInteger:(I)Ljava/lang/Integer;
   55:	invokevirtual	#85; //Method java/lang/Object.toString:()Ljava/lang/String;
   58:	invokespecial	#91; //Method scala/MatchError."<init>":(Ljava/lang/String;)V
   61:	athrow
   62:	iconst_1
   63:	ifeq	73
   66:	aload_0
   67:	invokevirtual	#72; //Method session:()Lscala/Symbol;
   70:	goto	122
   73:	new	#90; //class scala/MatchError
   76:	dup
   77:	iload_1
   78:	invokestatic	#81; //Method scala/runtime/BoxesRunTime.boxToInteger:(I)Ljava/lang/Integer;
   81:	invokevirtual	#85; //Method java/lang/Object.toString:()Ljava/lang/String;
   84:	invokespecial	#91; //Method scala/MatchError."<init>":(Ljava/lang/String;)V
   87:	athrow
   88:	iconst_1
   89:	ifeq	99
   92:	aload_0
   93:	invokevirtual	#59; //Method msg:()Ljava/lang/Object;
   96:	goto	122
   99:	new	#90; //class scala/MatchError
   102:	dup
   103:	iload_1
   104:	invokestatic	#81; //Method scala/runtime/BoxesRunTime.boxToInteger:(I)Ljava/lang/Integer;
   107:	invokevirtual	#85; //Method java/lang/Object.toString:()Ljava/lang/String;
   110:	invokespecial	#91; //Method scala/MatchError."<init>":(Ljava/lang/String;)V
   113:	athrow
   114:	iconst_1
   115:	ifeq	123
   118:	aload_0
   119:	invokevirtual	#52; //Method a:()Lscala/actors/OutputChannel;
   122:	areturn
   123:	new	#90; //class scala/MatchError
   126:	dup
   127:	iload_1
   128:	invokestatic	#81; //Method scala/runtime/BoxesRunTime.boxToInteger:(I)Ljava/lang/Integer;
   131:	invokevirtual	#85; //Method java/lang/Object.toString:()Ljava/lang/String;
   134:	invokespecial	#91; //Method scala/MatchError."<init>":(Ljava/lang/String;)V
   137:	athrow
  LineNumberTable: 
   line 21: 0
   line 644: 28
   line 21: 32
   line 644: 62
   line 21: 66
   line 644: 88
   line 21: 92
   line 644: 114
   line 21: 118


public int productArity();
  Code:
   Stack=1, Locals=1, Args_size=1
   0:	iconst_3
   1:	ireturn
  LineNumberTable: 
   line 21: 0


public java.lang.String productPrefix();
  Code:
   Stack=1, Locals=1, Args_size=1
   0:	ldc	#96; //String SendTo
   2:	areturn
  LineNumberTable: 
   line 21: 0


public boolean equals(java.lang.Object);
  Code:
   Stack=4, Locals=6, Args_size=2
   0:	aload_0
   1:	aload_1
   2:	if_acmpeq	87
   5:	aload_1
   6:	instanceof	#26; //class scala/actors/remote/SendTo
   9:	ifeq	79
   12:	aload_1
   13:	checkcast	#26; //class scala/actors/remote/SendTo
   16:	astore_2
   17:	aload_2
   18:	invokevirtual	#52; //Method a:()Lscala/actors/OutputChannel;
   21:	astore_3
   22:	aload_2
   23:	invokevirtual	#59; //Method msg:()Ljava/lang/Object;
   26:	astore	4
   28:	aload_2
   29:	invokevirtual	#72; //Method session:()Lscala/Symbol;
   32:	astore	5
   34:	aload_0
   35:	aload_3
   36:	aload	4
   38:	aload	5
   40:	invokespecial	#98; //Method gd4$1:(Lscala/actors/OutputChannel;Ljava/lang/Object;Lscala/Symbol;)Z
   43:	ifeq	59
   46:	aload_1
   47:	checkcast	#26; //class scala/actors/remote/SendTo
   50:	aload_0
   51:	invokeinterface	#102,  2; //InterfaceMethod scala/Equals.canEqual:(Ljava/lang/Object;)Z
   56:	goto	84
   59:	iconst_1
   60:	ifeq	67
   63:	iconst_0
   64:	goto	84
   67:	new	#90; //class scala/MatchError
   70:	dup
   71:	aload_1
   72:	invokevirtual	#85; //Method java/lang/Object.toString:()Ljava/lang/String;
   75:	invokespecial	#91; //Method scala/MatchError."<init>":(Ljava/lang/String;)V
   78:	athrow
   79:	iconst_1
   80:	ifeq	93
   83:	iconst_0
   84:	ifeq	91
   87:	iconst_1
   88:	goto	92
   91:	iconst_0
   92:	ireturn
   93:	new	#90; //class scala/MatchError
   96:	dup
   97:	aload_1
   98:	invokevirtual	#85; //Method java/lang/Object.toString:()Ljava/lang/String;
   101:	invokespecial	#91; //Method scala/MatchError."<init>":(Ljava/lang/String;)V
   104:	athrow
  LineNumberTable: 
   line 21: 0
   line 644: 59
   line 862: 63
   line 21: 67
   line 644: 79
   line 862: 83
   line 21: 84

  LocalVariableTable: 
   Start  Length  Slot  Name   Signature
   0      105      0    this       Lscala/actors/remote/SendTo;
   17      62      2    temp20       Lscala/actors/remote/SendTo;
   22      57      3    temp21       Lscala/actors/OutputChannel;
   28      51      4    temp22       Ljava/lang/Object;
   34      45      5    temp23       Lscala/Symbol;


public java.lang.String toString();
  Code:
   Stack=2, Locals=1, Args_size=1
   0:	getstatic	#111; //Field scala/runtime/ScalaRunTime$.MODULE$:Lscala/runtime/ScalaRunTime$;
   3:	aload_0
   4:	invokevirtual	#115; //Method scala/runtime/ScalaRunTime$._toString:(Lscala/Product;)Ljava/lang/String;
   7:	areturn
  LineNumberTable: 
   line 21: 0


public int hashCode();
  Code:
   Stack=2, Locals=1, Args_size=1
   0:	getstatic	#111; //Field scala/runtime/ScalaRunTime$.MODULE$:Lscala/runtime/ScalaRunTime$;
   3:	aload_0
   4:	invokevirtual	#120; //Method scala/runtime/ScalaRunTime$._hashCode:(Lscala/Product;)I
   7:	ireturn
  LineNumberTable: 
   line 21: 0


public scala.actors.remote.SendTo copy(scala.actors.OutputChannel, java.lang.Object, scala.Symbol);
  Code:
   Stack=5, Locals=4, Args_size=4
   0:	new	#26; //class scala/actors/remote/SendTo
   3:	dup
   4:	aload_1
   5:	aload_2
   6:	aload_3
   7:	invokespecial	#124; //Method "<init>":(Lscala/actors/OutputChannel;Ljava/lang/Object;Lscala/Symbol;)V
   10:	areturn
  LineNumberTable: 
   line 21: 0

  LocalVariableTable: 
   Start  Length  Slot  Name   Signature
   0      11      0    this       Lscala/actors/remote/SendTo;
   0      11      1    a       Lscala/actors/OutputChannel;
   0      11      2    msg       Ljava/lang/Object;
   0      11      3    session       Lscala/Symbol;


public scala.Symbol session();
  Code:
   Stack=1, Locals=1, Args_size=1
   0:	aload_0
   1:	getfield	#32; //Field session:Lscala/Symbol;
   4:	areturn
  LineNumberTable: 
   line 21: 0


public java.lang.Object msg();
  Code:
   Stack=1, Locals=1, Args_size=1
   0:	aload_0
   1:	getfield	#30; //Field msg:Ljava/lang/Object;
   4:	areturn
  LineNumberTable: 
   line 21: 0


public scala.actors.OutputChannel a();
  Code:
   Stack=1, Locals=1, Args_size=1
   0:	aload_0
   1:	getfield	#28; //Field a:Lscala/actors/OutputChannel;
   4:	areturn
  LineNumberTable: 
   line 21: 0

  Signature: length = 0x2
   00 7D 

public scala.actors.OutputChannel copy$default$1();
  Code:
   Stack=1, Locals=1, Args_size=1
   0:	aload_0
   1:	invokevirtual	#52; //Method a:()Lscala/actors/OutputChannel;
   4:	areturn
  LineNumberTable: 
   line 21: 0


public java.lang.Object copy$default$2();
  Code:
   Stack=1, Locals=1, Args_size=1
   0:	aload_0
   1:	invokevirtual	#59; //Method msg:()Ljava/lang/Object;
   4:	areturn
  LineNumberTable: 
   line 21: 0


public scala.Symbol copy$default$3();
  Code:
   Stack=1, Locals=1, Args_size=1
   0:	aload_0
   1:	invokevirtual	#72; //Method session:()Lscala/Symbol;
   4:	areturn
  LineNumberTable: 
   line 21: 0


public scala.collection.Iterator productElements();
  Code:
   Stack=1, Locals=1, Args_size=1
   0:	aload_0
   1:	invokestatic	#133; //Method scala/Product$class.productElements:(Lscala/Product;)Lscala/collection/Iterator;
   4:	areturn
  LineNumberTable: 
   line 21: 0


public scala.collection.Iterator productIterator();
  Code:
   Stack=1, Locals=1, Args_size=1
   0:	aload_0
   1:	invokestatic	#136; //Method scala/Product$class.productIterator:(Lscala/Product;)Lscala/collection/Iterator;
   4:	areturn
  LineNumberTable: 
   line 21: 0


}

