Compiled from "Regex.scala"
public class scala.util.matching.Regex extends java.lang.Object implements scala.ScalaObject
  SourceFile: "Regex.scala"
  ScalaSig: length = 0x96E
   05 00 FFFFFF82 43 06 08 01 02 FFFFFF84 FFFFFF80 FFFFFF80 FFFFFF80 00 09 02 05
   52 65 67 65 78 0A 02 03 04 01 08 6D 61 74 63 68
   69 6E 67 0A 02 05 06 01 04 75 74 69 6C 0A 01 07
   01 05 73 63 61 6C 61 03 00 13 03 00 0A 12 10 02
   0B 10 0D 01 0C 0A 02 0D 0E 01 04 6C 61 6E 67 0A
   01 0F 01 04 6A 61 76 61 09 02 11 0C 02 06 4F 62
   6A 65 63 74 10 02 13 14 0D 01 06 09 02 15 06 02
   0B 53 63 61 6C 61 4F 62 6A 65 63 74 08 08 17 00
   FFFFFF82 FFFFFF80 FFFFFFA0 FFFFFF80 04 18 01 05 72 65 67 65 78 10 02 19
   1C 0E 02 13 1A 09 02 1B 06 01 06 50 72 65 64 65
   66 09 02 1D 1E 02 06 53 74 72 69 6E 67 0A 02 1B
   06 08 08 20 00 FFFFFF82 FFFFFF80 FFFFFFA0 FFFFFF80 04 21 01 0A 67 72 6F
   75 70 4E 61 6D 65 73 10 03 13 22 18 09 02 23 06
   02 0A 3C 72 65 70 65 61 74 65 64 3E 08 05 25 00
   FFFFFF84 00 26 01 06 3C 69 6E 69 74 3E 14 03 27 29 2A
   10 02 28 00 0D 01 02 08 05 17 24 FFFFFFC0 00 18 08 05
   20 24 FFFFFFC0 00 21 08 07 2C 00 FFFFFFC2 FFFFFF80 FFFFFF84 00 2D 01 07
   70 61 74 74 65 72 6E 15 01 2E 10 02 2F 32 0D 01
   30 0A 02 17 31 0A 02 05 0E 09 02 33 30 02 07 50
   61 74 74 65 72 6E 08 06 35 00 FFFFFFA0 FFFFFF80 04 2E 01 08
   70 61 74 74 65 72 6E 20 08 05 37 00 FFFFFF84 00 38 01
   0A 75 6E 61 70 70 6C 79 53 65 71 14 02 39 48 10
   03 13 3A 3C 09 02 3B 06 02 06 4F 70 74 69 6F 6E
   10 03 3D 45 18 0E 02 3E 43 0E 02 3F 42 0D 01 40
   0A 02 41 08 01 06 3C 72 6F 6F 74 3E 09 01 07 09
   02 44 06 01 07 70 61 63 6B 61 67 65 09 02 46 47
   02 04 4C 69 73 74 0A 02 44 06 08 05 49 36 FFFFFFC0 00
   4A 01 06 74 61 72 67 65 74 10 02 13 4B 09 02 4C
   06 02 03 41 6E 79 08 05 4E 00 FFFFFF84 00 4F 01 09 66
   69 6E 64 41 6C 6C 49 6E 14 03 50 FFFFFF82 23 10 03 51
   FFFFFF81 63 0E 02 28 52 07 05 53 02 FFFFFF88 02 54 01 05 52
   65 67 65 78 10 02 28 55 06 08 01 02 FFFFFF84 FFFFFF80 FFFFFF80 FFFFFF88
   02 56 13 03 55 0A 12 08 05 25 55 FFFFFF84 00 58 14 01
   54 06 08 5A 55 FFFFFF84 FFFFFF90 FFFFFF80 FFFFFF81 00 5B 02 09 4D 61 74
   63 68 44 61 74 61 13 03 59 0A 12 08 05 5D 59 FFFFFF84
   00 5E 01 06 24 69 6E 69 74 24 14 01 5F 10 02 13
   60 09 02 61 06 02 04 55 6E 69 74 08 07 63 59 FFFFFFC2
   FFFFFF80 FFFFFF86 00 64 01 06 73 6F 75 72 63 65 15 01 65 10
   02 0B 66 09 02 67 0C 02 0C 43 68 61 72 53 65 71
   75 65 6E 63 65 08 07 20 59 FFFFFFC2 FFFFFF80 FFFFFF86 00 69 15 01
   6A 10 03 3D 6B 18 09 02 6C 47 02 03 53 65 71 08
   05 6E 59 FFFFFF86 00 6F 01 0A 67 72 6F 75 70 43 6F 75
   6E 74 15 01 70 10 02 13 71 09 02 72 06 02 03 49
   6E 74 08 05 74 59 FFFFFF86 00 6F 01 05 73 74 61 72 74
   08 05 74 59 FFFFFF86 00 76 14 02 70 77 08 05 78 75 FFFFFFC0
   00 70 01 01 69 08 05 7A 59 FFFFFF86 00 6F 01 03 65 6E
   64 08 05 7A 59 FFFFFF86 00 7C 14 02 70 7D 08 05 78 7B
   FFFFFFC0 00 70 08 06 7F 59 FFFFFF84 00 FFFFFF81 00 01 07 6D 61 74
   63 68 65 64 15 01 18 08 07 FFFFFF81 02 59 FFFFFF84 00 FFFFFF81 03
   01 05 67 72 6F 75 70 14 03 18 FFFFFF81 04 08 06 78 FFFFFF81
   01 FFFFFFC0 00 70 08 07 FFFFFF81 06 59 FFFFFF84 00 FFFFFF81 07 01 09 73
   75 62 67 72 6F 75 70 73 15 01 3C 08 06 FFFFFF81 09 59
   FFFFFF84 00 64 01 06 62 65 66 6F 72 65 08 07 FFFFFF81 09 59
   FFFFFF84 00 FFFFFF81 0B 14 03 65 FFFFFF81 0C 08 06 78 FFFFFF81 0A FFFFFFC0 00
   70 08 06 FFFFFF81 0E 59 FFFFFF84 00 64 01 05 61 66 74 65 72
   08 07 FFFFFF81 0E 59 FFFFFF84 00 FFFFFF81 10 14 03 65 FFFFFF81 11 08 06
   78 FFFFFF81 0F FFFFFFC0 00 70 08 0A FFFFFF81 13 59 FFFFFF88 FFFFFFC2 FFFFFF80 FFFFFF84 04
   FFFFFF81 14 01 0B 6E 61 6D 65 54 6F 49 6E 64 65 78 15
   02 FFFFFF81 15 10 05 19 FFFFFF81 16 18 70 09 03 FFFFFF81 17 1E 02
   03 4D 61 70 08 0A FFFFFF81 19 59 FFFFFF88 FFFFFF80 FFFFFFA0 FFFFFFA0 04 FFFFFF81 15
   01 0C 6E 61 6D 65 54 6F 49 6E 64 65 78 20 08 07
   FFFFFF81 02 59 FFFFFF84 00 FFFFFF81 1B 14 03 18 FFFFFF81 1C 08 07 FFFFFF81 1D
   FFFFFF81 1A FFFFFFC0 00 18 01 02 69 64 08 07 FFFFFF81 1F 59 FFFFFF84 20
   FFFFFF81 20 01 08 74 6F 53 74 72 69 6E 67 14 01 18 06
   0A FFFFFF81 22 55 FFFFFF84 FFFFFF80 FFFFFF80 FFFFFF80 00 FFFFFF81 23 02 05 4D 61 74
   63 68 13 06 FFFFFF81 21 0A FFFFFF81 24 12 10 03 FFFFFF81 25 59 0D
   01 55 08 09 63 FFFFFF81 21 FFFFFF82 FFFFFFC2 FFFFFF80 FFFFFF84 00 64 08 0A FFFFFF81
   28 FFFFFF81 21 FFFFFF82 FFFFFF80 FFFFFFA0 FFFFFF80 04 65 01 07 73 6F 75 72 63
   65 20 08 0B FFFFFF81 2A FFFFFF81 21 FFFFFF82 FFFFFF80 FFFFFFA0 FFFFFF80 04 FFFFFF81 2B 01
   07 6D 61 74 63 68 65 72 10 03 2F FFFFFF81 2C 09 03 FFFFFF81
   2D 30 02 07 4D 61 74 63 68 65 72 08 09 20 FFFFFF81 21
   FFFFFF82 FFFFFFC2 FFFFFF80 FFFFFF84 00 69 08 0A FFFFFF81 30 FFFFFF81 21 FFFFFF82 FFFFFF80 FFFFFFA0 FFFFFF80
   04 6A 01 0B 67 72 6F 75 70 4E 61 6D 65 73 20 08
   07 25 FFFFFF81 21 FFFFFF84 00 FFFFFF81 32 14 08 FFFFFF81 33 FFFFFF81 34 FFFFFF81 35
   FFFFFF81 36 10 04 FFFFFF81 25 FFFFFF81 21 08 06 63 FFFFFF81 31 FFFFFFC0 00 65
   08 08 FFFFFF81 2A FFFFFF81 31 FFFFFFC0 00 FFFFFF81 2B 08 06 20 FFFFFF81 31 FFFFFFC0
   00 6A 08 08 74 FFFFFF81 21 FFFFFFC2 FFFFFF80 FFFFFF84 00 6F 08 08 FFFFFF81 39
   FFFFFF81 21 FFFFFFA0 FFFFFF80 04 70 01 06 73 74 61 72 74 20 08 08
   7A FFFFFF81 21 FFFFFFC2 FFFFFF80 FFFFFF84 00 6F 08 08 FFFFFF81 3C FFFFFF81 21 FFFFFFA0 FFFFFF80
   04 70 01 04 65 6E 64 20 08 06 6E FFFFFF81 21 FFFFFF84 00 6F
   08 0B FFFFFF81 3F FFFFFF81 21 FFFFFF88 FFFFFFC2 FFFFFF80 FFFFFF84 04 FFFFFF81 40 01 06 73
   74 61 72 74 73 15 02 FFFFFF81 41 10 04 13 FFFFFF81 42 70 09
   03 FFFFFF81 43 06 02 05 41 72 72 61 79 08 0B FFFFFF81 45 FFFFFF81
   21 FFFFFF88 FFFFFF80 FFFFFFA0 FFFFFFA0 04 FFFFFF81 41 01 07 73 74 61 72 74 73
   20 08 0B FFFFFF81 47 FFFFFF81 21 FFFFFF88 FFFFFFC2 FFFFFF80 FFFFFF84 04 FFFFFF81 40 01 04
   65 6E 64 73 08 0B FFFFFF81 49 FFFFFF81 21 FFFFFF88 FFFFFF80 FFFFFFA0 FFFFFFA0 04 FFFFFF81
   41 01 05 65 6E 64 73 20 08 07 74 FFFFFF81 21 FFFFFF84 00 FFFFFF81
   4B 14 03 70 FFFFFF81 4C 08 06 78 FFFFFF81 4A FFFFFFC0 00 70 08 07
   7A FFFFFF81 21 FFFFFF84 00 FFFFFF81 4E 14 03 70 FFFFFF81 4F 08 06 78 FFFFFF81
   4D FFFFFFC0 00 70 08 08 FFFFFF81 51 FFFFFF81 21 FFFFFF84 00 FFFFFF81 52 01 05
   66 6F 72 63 65 15 02 FFFFFF81 53 0D 02 FFFFFF81 21 07 07 FFFFFF81
   55 55 FFFFFF88 02 FFFFFF81 56 01 05 4D 61 74 63 68 10 04 FFFFFF81
   25 FFFFFF81 57 06 0A FFFFFF81 22 55 FFFFFF84 FFFFFF80 FFFFFF80 FFFFFF88 02 FFFFFF81 58 13
   04 FFFFFF81 57 0A 12 08 07 25 FFFFFF81 57 FFFFFF84 00 FFFFFF81 5A 14 02
   FFFFFF81 56 08 08 FFFFFF81 5C FFFFFF81 57 FFFFFF84 00 FFFFFF81 5D 01 07 75 6E
   61 70 70 6C 79 14 04 FFFFFF81 5E FFFFFF81 61 10 04 13 FFFFFF81 5F
   18 09 03 FFFFFF81 60 06 02 04 53 6F 6D 65 08 08 FFFFFF81 62
   FFFFFF81 5B FFFFFFC0 00 FFFFFF81 33 01 01 6D 06 0A FFFFFF81 64 55 FFFFFF84 FFFFFF80
   FFFFFF80 FFFFFF80 00 FFFFFF81 65 02 0D 4D 61 74 63 68 49 74 65 72
   61 74 6F 72 13 08 FFFFFF81 63 0A FFFFFF81 66 FFFFFF81 24 12 10 05
   FFFFFF81 67 FFFFFF81 6A 18 0D 02 FFFFFF81 68 0A 03 FFFFFF81 69 06 01 0A
   63 6F 6C 6C 65 63 74 69 6F 6E 09 04 FFFFFF81 6B FFFFFF81 68
   02 08 49 74 65 72 61 74 6F 72 08 09 63 FFFFFF81 63 FFFFFF82
   FFFFFFC2 FFFFFF80 FFFFFF84 00 64 08 0A FFFFFF81 28 FFFFFF81 63 FFFFFF82 FFFFFF80 FFFFFFA0 FFFFFF80 04
   65 08 0A 17 FFFFFF81 63 FFFFFF82 FFFFFFC2 FFFFFF80 FFFFFF84 00 FFFFFF81 6F 15 01 27
   08 0A FFFFFF81 71 FFFFFF81 63 FFFFFF82 FFFFFF80 FFFFFFA0 FFFFFF80 04 27 01 06 72 65
   67 65 78 20 08 09 20 FFFFFF81 63 FFFFFF82 FFFFFFC2 FFFFFF80 FFFFFF84 00 69 08
   0A FFFFFF81 30 FFFFFF81 63 FFFFFF82 FFFFFF80 FFFFFFA0 FFFFFF80 04 6A 08 07 25 FFFFFF81 63
   FFFFFF84 00 FFFFFF81 75 14 08 FFFFFF81 76 FFFFFF81 77 FFFFFF81 78 FFFFFF81 79 10 04
   FFFFFF81 25 FFFFFF81 63 08 06 63 FFFFFF81 74 FFFFFFC0 00 65 08 06 17 FFFFFF81
   74 FFFFFFC0 00 27 08 06 20 FFFFFF81 74 FFFFFFC0 00 6A 08 0A FFFFFF81 2A
   FFFFFF81 63 FFFFFFC2 FFFFFF80 FFFFFF84 04 FFFFFF81 7B 15 02 FFFFFF81 2B 08 09 FFFFFF81 7D
   FFFFFF81 63 FFFFFFA0 FFFFFF80 04 FFFFFF81 2B 01 08 6D 61 74 63 68 65 72
   20 08 0A FFFFFF81 7F FFFFFF81 63 FFFFFFC0 FFFFFF80 FFFFFF84 04 FFFFFF82 00 01 08 6E
   65 78 74 53 65 65 6E 15 02 FFFFFF82 01 10 03 13 FFFFFF82 02
   09 03 FFFFFF82 03 06 02 07 42 6F 6F 6C 65 61 6E 08 0A
   FFFFFF82 05 FFFFFF81 63 FFFFFFC0 FFFFFF80 FFFFFF84 04 FFFFFF82 06 01 0C 6E 65 78 74
   53 65 65 6E 5F 24 65 71 14 03 5F FFFFFF82 07 08 0A FFFFFF82
   08 FFFFFF82 04 FFFFFF81 FFFFFF80 FFFFFFC0 00 FFFFFF82 01 01 03 78 24 31 08 09
   FFFFFF82 0A FFFFFF81 63 FFFFFFA0 FFFFFFA0 04 FFFFFF82 01 01 09 6E 65 78 74 53
   65 65 6E 20 08 08 FFFFFF82 0C FFFFFF81 63 FFFFFF84 00 FFFFFF82 00 01 07
   68 61 73 4E 65 78 74 08 08 FFFFFF82 0E FFFFFF81 63 FFFFFF84 00 FFFFFF81
   20 01 04 6E 65 78 74 08 08 FFFFFF81 1F FFFFFF81 63 FFFFFF84 20 FFFFFF82
   10 14 02 FFFFFF82 11 10 03 0B FFFFFF82 12 09 02 1D 0C 08 06
   74 FFFFFF81 63 FFFFFF84 00 6F 08 07 74 FFFFFF81 63 FFFFFF84 00 FFFFFF82 15 14
   03 70 FFFFFF82 16 08 06 78 FFFFFF82 14 FFFFFFC0 00 70 08 06 7A FFFFFF81
   63 FFFFFF84 00 6F 08 07 7A FFFFFF81 63 FFFFFF84 00 FFFFFF82 19 14 03 70
   FFFFFF82 1A 08 06 78 FFFFFF82 18 FFFFFFC0 00 70 08 06 6E FFFFFF81 63 FFFFFF84
   00 6F 08 08 FFFFFF82 1D FFFFFF81 63 FFFFFF84 00 FFFFFF82 1E 01 09 6D 61
   74 63 68 44 61 74 61 15 02 FFFFFF82 1F 12 05 FFFFFF82 20 0A
   FFFFFF82 22 06 0B FFFFFF82 21 FFFFFF82 1C FFFFFF84 FFFFFF80 FFFFFF80 FFFFFF80 00 FFFFFF82 1F 02
   0C 3C 72 65 66 69 6E 65 6D 65 6E 74 3E 10 06 FFFFFF81
   67 FFFFFF81 6A FFFFFF81 33 08 05 63 4D FFFFFFC0 00 65 08 07 FFFFFF82 25
   00 FFFFFF84 00 FFFFFF82 26 01 0B 66 69 6E 64 46 69 72 73 74
   49 6E 14 04 FFFFFF82 27 FFFFFF82 28 10 03 13 3A 18 08 06 63
   FFFFFF82 24 FFFFFFC0 00 65 08 07 FFFFFF82 2A 00 FFFFFF84 00 FFFFFF82 2B 01 10
   66 69 6E 64 46 69 72 73 74 4D 61 74 63 68 49 6E
   14 04 FFFFFF82 2C FFFFFF82 2E 10 04 13 3A FFFFFF82 2D 10 03 51 FFFFFF81
   21 08 06 63 FFFFFF82 29 FFFFFFC0 00 65 08 07 FFFFFF82 30 00 FFFFFF84 00
   FFFFFF82 31 01 0C 66 69 6E 64 50 72 65 66 69 78 4F 66
   14 04 FFFFFF82 27 FFFFFF82 32 08 06 63 FFFFFF82 2F FFFFFFC0 00 65 08 07
   FFFFFF82 34 00 FFFFFF84 00 FFFFFF82 35 01 11 66 69 6E 64 50 72 65
   66 69 78 4D 61 74 63 68 4F 66 14 04 FFFFFF82 2C FFFFFF82 36
   08 06 63 FFFFFF82 33 FFFFFFC0 00 65 08 07 FFFFFF82 38 00 FFFFFF84 00 FFFFFF82
   39 01 0C 72 65 70 6C 61 63 65 41 6C 6C 49 6E 14
   05 18 FFFFFF82 3A FFFFFF82 3B 08 06 49 FFFFFF82 37 FFFFFFC0 00 65 08 07
   FFFFFF82 3C FFFFFF82 37 FFFFFFC0 00 18 01 0B 72 65 70 6C 61 63 65
   6D 65 6E 74 08 07 FFFFFF82 3E 00 FFFFFF84 00 FFFFFF82 3F 01 0E 72
   65 70 6C 61 63 65 46 69 72 73 74 49 6E 14 05 18
   FFFFFF82 40 FFFFFF82 41 08 06 49 FFFFFF82 3D FFFFFFC0 00 65 08 07 FFFFFF82 3C
   FFFFFF82 3D FFFFFFC0 00 18 08 07 FFFFFF81 1F 00 FFFFFF84 20 FFFFFF81 20 
  InnerClass: 
   public #185= #73 of #16; //Match=class scala/util/matching/Regex$Match of class scala/util/matching/Regex
   public abstract #188= #187 of #16; //MatchData=class scala/util/matching/Regex$MatchData of class scala/util/matching/Regex
   public #189= #101 of #16; //MatchIterator=class scala/util/matching/Regex$MatchIterator of class scala/util/matching/Regex
   public abstract #192= #191 of #16; //MatchData$class=class scala/util/matching/Regex$MatchData$class of class scala/util/matching/Regex
   public final #193= #138 of #16; //$anonfun$unapplySeq$1=class scala/util/matching/Regex$$anonfun$unapplySeq$1 of class scala/util/matching/Regex
  minor version: 0
  major version: 49
  Constant pool:
const #1 = Asciz	SourceFile;
const #2 = Asciz	Regex.scala;
const #3 = Asciz	pattern;
const #4 = Asciz	Ljava/util/regex/Pattern;;
const #5 = Asciz	groupNames;
const #6 = Asciz	Lscala/collection/Sequence;;
const #7 = Asciz	Lscala/collection/Sequence<Ljava/lang/String;>;;
const #8 = Asciz	Signature;
const #9 = Asciz	regex;
const #10 = Asciz	Ljava/lang/String;;
const #11 = Asciz	<init>;
const #12 = Asciz	(Ljava/lang/String;Lscala/collection/Sequence;)V;
const #13 = Asciz	Code;
const #14 = Asciz	LineNumberTable;
const #15 = Asciz	scala/util/matching/Regex;
const #16 = class	#15;	//  scala/util/matching/Regex
const #17 = NameAndType	#9:#10;//  regex:Ljava/lang/String;
const #18 = Field	#16.#17;	//  scala/util/matching/Regex.regex:Ljava/lang/String;
const #19 = NameAndType	#5:#6;//  groupNames:Lscala/collection/Sequence;
const #20 = Field	#16.#19;	//  scala/util/matching/Regex.groupNames:Lscala/collection/Sequence;
const #21 = Asciz	java/lang/Object;
const #22 = class	#21;	//  java/lang/Object
const #23 = Asciz	()V;
const #24 = NameAndType	#11:#23;//  "<init>":()V
const #25 = Method	#22.#24;	//  java/lang/Object."<init>":()V
const #26 = Asciz	java/util/regex/Pattern;
const #27 = class	#26;	//  java/util/regex/Pattern
const #28 = Asciz	compile;
const #29 = Asciz	(Ljava/lang/String;)Ljava/util/regex/Pattern;;
const #30 = NameAndType	#28:#29;//  compile:(Ljava/lang/String;)Ljava/util/regex/Pattern;
const #31 = Method	#27.#30;	//  java/util/regex/Pattern.compile:(Ljava/lang/String;)Ljava/util/regex/Pattern;
const #32 = NameAndType	#3:#4;//  pattern:Ljava/util/regex/Pattern;
const #33 = Field	#16.#32;	//  scala/util/matching/Regex.pattern:Ljava/util/regex/Pattern;
const #34 = Asciz	this;
const #35 = Asciz	Lscala/util/matching/Regex;;
const #36 = Asciz	LocalVariableTable;
const #37 = Asciz	(Ljava/lang/String;Lscala/collection/Sequence<Ljava/lang/String;>;)V;
const #38 = Asciz	toString;
const #39 = Asciz	()Ljava/lang/String;;
const #40 = Asciz	replaceFirstIn;
const #41 = Asciz	(Ljava/lang/CharSequence;Ljava/lang/String;)Ljava/lang/String;;
const #42 = Asciz	()Ljava/util/regex/Pattern;;
const #43 = NameAndType	#3:#42;//  pattern:()Ljava/util/regex/Pattern;
const #44 = Method	#16.#43;	//  scala/util/matching/Regex.pattern:()Ljava/util/regex/Pattern;
const #45 = Asciz	matcher;
const #46 = Asciz	(Ljava/lang/CharSequence;)Ljava/util/regex/Matcher;;
const #47 = NameAndType	#45:#46;//  matcher:(Ljava/lang/CharSequence;)Ljava/util/regex/Matcher;
const #48 = Method	#27.#47;	//  java/util/regex/Pattern.matcher:(Ljava/lang/CharSequence;)Ljava/util/regex/Matcher;
const #49 = Asciz	java/util/regex/Matcher;
const #50 = class	#49;	//  java/util/regex/Matcher
const #51 = Asciz	replaceFirst;
const #52 = Asciz	(Ljava/lang/String;)Ljava/lang/String;;
const #53 = NameAndType	#51:#52;//  replaceFirst:(Ljava/lang/String;)Ljava/lang/String;
const #54 = Method	#50.#53;	//  java/util/regex/Matcher.replaceFirst:(Ljava/lang/String;)Ljava/lang/String;
const #55 = Asciz	target;
const #56 = Asciz	Ljava/lang/CharSequence;;
const #57 = Asciz	replacement;
const #58 = Asciz	m;
const #59 = Asciz	Ljava/util/regex/Matcher;;
const #60 = Asciz	replaceAllIn;
const #61 = Asciz	replaceAll;
const #62 = NameAndType	#61:#52;//  replaceAll:(Ljava/lang/String;)Ljava/lang/String;
const #63 = Method	#50.#62;	//  java/util/regex/Matcher.replaceAll:(Ljava/lang/String;)Ljava/lang/String;
const #64 = Asciz	findPrefixMatchOf;
const #65 = Asciz	(Ljava/lang/CharSequence;)Lscala/Option;;
const #66 = Asciz	lookingAt;
const #67 = Asciz	()Z;
const #68 = NameAndType	#66:#67;//  lookingAt:()Z
const #69 = Method	#50.#68;	//  java/util/regex/Matcher.lookingAt:()Z
const #70 = Asciz	scala/Some;
const #71 = class	#70;	//  scala/Some
const #72 = Asciz	scala/util/matching/Regex$Match;
const #73 = class	#72;	//  scala/util/matching/Regex$Match
const #74 = Asciz	(Ljava/lang/CharSequence;Ljava/util/regex/Matcher;Lscala/collection/Sequence;)V;
const #75 = NameAndType	#11:#74;//  "<init>":(Ljava/lang/CharSequence;Ljava/util/regex/Matcher;Lscala/collection/Sequence;)V
const #76 = Method	#73.#75;	//  scala/util/matching/Regex$Match."<init>":(Ljava/lang/CharSequence;Ljava/util/regex/Matcher;Lscala/collection/Sequence;)V
const #77 = Asciz	(Ljava/lang/Object;)V;
const #78 = NameAndType	#11:#77;//  "<init>":(Ljava/lang/Object;)V
const #79 = Method	#71.#78;	//  scala/Some."<init>":(Ljava/lang/Object;)V
const #80 = Asciz	scala/None$;
const #81 = class	#80;	//  scala/None$
const #82 = Asciz	MODULE$;
const #83 = Asciz	Lscala/None$;;
const #84 = NameAndType	#82:#83;//  MODULE$:Lscala/None$;
const #85 = Field	#81.#84;	//  scala/None$.MODULE$:Lscala/None$;
const #86 = Asciz	source;
const #87 = Asciz	(Ljava/lang/CharSequence;)Lscala/Option<Lscala/util/matching/Regex$Match;>;;
const #88 = Asciz	findPrefixOf;
const #89 = Asciz	group;
const #90 = NameAndType	#89:#39;//  group:()Ljava/lang/String;
const #91 = Method	#50.#90;	//  java/util/regex/Matcher.group:()Ljava/lang/String;
const #92 = Asciz	(Ljava/lang/CharSequence;)Lscala/Option<Ljava/lang/String;>;;
const #93 = Asciz	findFirstMatchIn;
const #94 = Asciz	find;
const #95 = NameAndType	#94:#67;//  find:()Z
const #96 = Method	#50.#95;	//  java/util/regex/Matcher.find:()Z
const #97 = Asciz	findFirstIn;
const #98 = Asciz	findAllIn;
const #99 = Asciz	(Ljava/lang/CharSequence;)Lscala/util/matching/Regex$MatchIterator;;
const #100 = Asciz	scala/util/matching/Regex$MatchIterator;
const #101 = class	#100;	//  scala/util/matching/Regex$MatchIterator
const #102 = Asciz	(Ljava/lang/CharSequence;Lscala/util/matching/Regex;Lscala/collection/Sequence;)V;
const #103 = NameAndType	#11:#102;//  "<init>":(Ljava/lang/CharSequence;Lscala/util/matching/Regex;Lscala/collection/Sequence;)V
const #104 = Method	#101.#103;	//  scala/util/matching/Regex$MatchIterator."<init>":(Ljava/lang/CharSequence;Lscala/util/matching/Regex;Lscala/collection/Sequence;)V
const #105 = Asciz	unapplySeq;
const #106 = Asciz	(Ljava/lang/Object;)Lscala/Option;;
const #107 = Asciz	java/lang/CharSequence;
const #108 = class	#107;	//  java/lang/CharSequence
const #109 = Asciz	matches;
const #110 = NameAndType	#109:#67;//  matches:()Z
const #111 = Method	#50.#110;	//  java/util/regex/Matcher.matches:()Z
const #112 = Asciz	scala/Predef$;
const #113 = class	#112;	//  scala/Predef$
const #114 = Asciz	Lscala/Predef$;;
const #115 = NameAndType	#82:#114;//  MODULE$:Lscala/Predef$;
const #116 = Field	#113.#115;	//  scala/Predef$.MODULE$:Lscala/Predef$;
const #117 = Asciz	intWrapper;
const #118 = Asciz	(I)Lscala/runtime/RichInt;;
const #119 = NameAndType	#117:#118;//  intWrapper:(I)Lscala/runtime/RichInt;
const #120 = Method	#113.#119;	//  scala/Predef$.intWrapper:(I)Lscala/runtime/RichInt;
const #121 = Asciz	groupCount;
const #122 = Asciz	()I;
const #123 = NameAndType	#121:#122;//  groupCount:()I
const #124 = Method	#50.#123;	//  java/util/regex/Matcher.groupCount:()I
const #125 = Asciz	scala/runtime/RichInt;
const #126 = class	#125;	//  scala/runtime/RichInt
const #127 = Asciz	to;
const #128 = Asciz	(I)Lscala/Range;;
const #129 = NameAndType	#127:#128;//  to:(I)Lscala/Range;
const #130 = Method	#126.#129;	//  scala/runtime/RichInt.to:(I)Lscala/Range;
const #131 = Asciz	scala/collection/generic/TraversableTemplate;
const #132 = class	#131;	//  scala/collection/generic/TraversableTemplate
const #133 = Asciz	toList;
const #134 = Asciz	()Lscala/collection/immutable/List;;
const #135 = NameAndType	#133:#134;//  toList:()Lscala/collection/immutable/List;
const #136 = InterfaceMethod	#132.#135;	//  scala/collection/generic/TraversableTemplate.toList:()Lscala/collection/immutable/List;
const #137 = Asciz	scala/util/matching/Regex$$anonfun$unapplySeq$1;
const #138 = class	#137;	//  scala/util/matching/Regex$$anonfun$unapplySeq$1
const #139 = Asciz	(Lscala/util/matching/Regex;Ljava/util/regex/Matcher;)V;
const #140 = NameAndType	#11:#139;//  "<init>":(Lscala/util/matching/Regex;Ljava/util/regex/Matcher;)V
const #141 = Method	#138.#140;	//  scala/util/matching/Regex$$anonfun$unapplySeq$1."<init>":(Lscala/util/matching/Regex;Ljava/util/regex/Matcher;)V
const #142 = Asciz	scala/collection/immutable/List$;
const #143 = class	#142;	//  scala/collection/immutable/List$
const #144 = Asciz	Lscala/collection/immutable/List$;;
const #145 = NameAndType	#82:#144;//  MODULE$:Lscala/collection/immutable/List$;
const #146 = Field	#143.#145;	//  scala/collection/immutable/List$.MODULE$:Lscala/collection/immutable/List$;
const #147 = Asciz	builderFactory;
const #148 = Asciz	()Lscala/collection/generic/BuilderFactory;;
const #149 = NameAndType	#147:#148;//  builderFactory:()Lscala/collection/generic/BuilderFactory;
const #150 = Method	#143.#149;	//  scala/collection/immutable/List$.builderFactory:()Lscala/collection/generic/BuilderFactory;
const #151 = Asciz	map;
const #152 = Asciz	(Lscala/Function1;Lscala/collection/generic/BuilderFactory;)Ljava/lang/Object;;
const #153 = NameAndType	#151:#152;//  map:(Lscala/Function1;Lscala/collection/generic/BuilderFactory;)Ljava/lang/Object;
const #154 = InterfaceMethod	#132.#153;	//  scala/collection/generic/TraversableTemplate.map:(Lscala/Function1;Lscala/collection/generic/BuilderFactory;)Ljava/lang/Object;
const #155 = Asciz	scala/util/matching/Regex$Match$;
const #156 = class	#155;	//  scala/util/matching/Regex$Match$
const #157 = Asciz	Lscala/util/matching/Regex$Match$;;
const #158 = NameAndType	#82:#157;//  MODULE$:Lscala/util/matching/Regex$Match$;
const #159 = Field	#156.#158;	//  scala/util/matching/Regex$Match$.MODULE$:Lscala/util/matching/Regex$Match$;
const #160 = Asciz	unapply;
const #161 = Asciz	(Lscala/util/matching/Regex$Match;)Lscala/Some;;
const #162 = NameAndType	#160:#161;//  unapply:(Lscala/util/matching/Regex$Match;)Lscala/Some;
const #163 = Method	#156.#162;	//  scala/util/matching/Regex$Match$.unapply:(Lscala/util/matching/Regex$Match;)Lscala/Some;
const #164 = Asciz	get;
const #165 = Asciz	()Ljava/lang/Object;;
const #166 = NameAndType	#164:#165;//  get:()Ljava/lang/Object;
const #167 = Method	#71.#166;	//  scala/Some.get:()Ljava/lang/Object;
const #168 = Asciz	java/lang/String;
const #169 = class	#168;	//  java/lang/String
const #170 = NameAndType	#105:#106;//  unapplySeq:(Ljava/lang/Object;)Lscala/Option;
const #171 = Method	#16.#170;	//  scala/util/matching/Regex.unapplySeq:(Ljava/lang/Object;)Lscala/Option;
const #172 = Asciz	Ljava/lang/Object;;
const #173 = Asciz	temp1;
const #174 = Asciz	temp2;
const #175 = Asciz	s;
const #176 = Asciz	m$1;
const #177 = Asciz	temp3;
const #178 = Asciz	Lscala/util/matching/Regex$Match;;
const #179 = Asciz	temp4;
const #180 = Asciz	Lscala/Some;;
const #181 = Asciz	temp5;
const #182 = Asciz	(Ljava/lang/Object;)Lscala/Option<Lscala/collection/immutable/List<Ljava/lang/String;>;>;;
const #183 = Asciz	ScalaSig;
const #184 = Asciz	InnerClasses;
const #185 = Asciz	Match;
const #186 = Asciz	scala/util/matching/Regex$MatchData;
const #187 = class	#186;	//  scala/util/matching/Regex$MatchData
const #188 = Asciz	MatchData;
const #189 = Asciz	MatchIterator;
const #190 = Asciz	scala/util/matching/Regex$MatchData$class;
const #191 = class	#190;	//  scala/util/matching/Regex$MatchData$class
const #192 = Asciz	MatchData$class;
const #193 = Asciz	$anonfun$unapplySeq$1;
const #194 = Asciz	scala/ScalaObject;
const #195 = class	#194;	//  scala/ScalaObject

{
public scala.util.matching.Regex(java.lang.String, scala.collection.Sequence);
  Code:
   Stack=2, Locals=3, Args_size=3
   0:	aload_0
   1:	aload_1
   2:	putfield	#18; //Field regex:Ljava/lang/String;
   5:	aload_0
   6:	aload_2
   7:	putfield	#20; //Field groupNames:Lscala/collection/Sequence;
   10:	aload_0
   11:	invokespecial	#25; //Method java/lang/Object."<init>":()V
   14:	aload_0
   15:	aload_1
   16:	invokestatic	#31; //Method java/util/regex/Pattern.compile:(Ljava/lang/String;)Ljava/util/regex/Pattern;
   19:	putfield	#33; //Field pattern:Ljava/util/regex/Pattern;
   22:	return
  LineNumberTable: 
   line 33: 0
   line 38: 14

  LocalVariableTable: 
   Start  Length  Slot  Name   Signature
   0      23      0    this       Lscala/util/matching/Regex;
   0      23      1    regex       Ljava/lang/String;
   0      23      2    groupNames       Lscala/collection/Sequence;

  Signature: length = 0x2
   00 25 

public java.lang.String toString();
  Code:
   Stack=1, Locals=1, Args_size=1
   0:	aload_0
   1:	getfield	#18; //Field regex:Ljava/lang/String;
   4:	areturn
  LineNumberTable: 
   line 118: 0


public java.lang.String replaceFirstIn(java.lang.CharSequence, java.lang.String);
  Code:
   Stack=2, Locals=4, Args_size=3
   0:	aload_0
   1:	invokevirtual	#44; //Method pattern:()Ljava/util/regex/Pattern;
   4:	aload_1
   5:	invokevirtual	#48; //Method java/util/regex/Pattern.matcher:(Ljava/lang/CharSequence;)Ljava/util/regex/Matcher;
   8:	astore_3
   9:	aload_3
   10:	aload_2
   11:	invokevirtual	#54; //Method java/util/regex/Matcher.replaceFirst:(Ljava/lang/String;)Ljava/lang/String;
   14:	areturn
  LineNumberTable: 
   line 113: 0
   line 114: 9

  LocalVariableTable: 
   Start  Length  Slot  Name   Signature
   0      15      0    this       Lscala/util/matching/Regex;
   0      15      1    target       Ljava/lang/CharSequence;
   0      15      2    replacement       Ljava/lang/String;
   9      5      3    m       Ljava/util/regex/Matcher;


public java.lang.String replaceAllIn(java.lang.CharSequence, java.lang.String);
  Code:
   Stack=2, Locals=4, Args_size=3
   0:	aload_0
   1:	invokevirtual	#44; //Method pattern:()Ljava/util/regex/Pattern;
   4:	aload_1
   5:	invokevirtual	#48; //Method java/util/regex/Pattern.matcher:(Ljava/lang/CharSequence;)Ljava/util/regex/Matcher;
   8:	astore_3
   9:	aload_3
   10:	aload_2
   11:	invokevirtual	#63; //Method java/util/regex/Matcher.replaceAll:(Ljava/lang/String;)Ljava/lang/String;
   14:	areturn
  LineNumberTable: 
   line 102: 0
   line 103: 9

  LocalVariableTable: 
   Start  Length  Slot  Name   Signature
   0      15      0    this       Lscala/util/matching/Regex;
   0      15      1    target       Ljava/lang/CharSequence;
   0      15      2    replacement       Ljava/lang/String;
   9      5      3    m       Ljava/util/regex/Matcher;


public scala.Option findPrefixMatchOf(java.lang.CharSequence);
  Code:
   Stack=7, Locals=3, Args_size=2
   0:	aload_0
   1:	invokevirtual	#44; //Method pattern:()Ljava/util/regex/Pattern;
   4:	aload_1
   5:	invokevirtual	#48; //Method java/util/regex/Pattern.matcher:(Ljava/lang/CharSequence;)Ljava/util/regex/Matcher;
   8:	astore_2
   9:	aload_2
   10:	invokevirtual	#69; //Method java/util/regex/Matcher.lookingAt:()Z
   13:	ifeq	39
   16:	new	#71; //class scala/Some
   19:	dup
   20:	new	#73; //class scala/util/matching/Regex$Match
   23:	dup
   24:	aload_1
   25:	aload_2
   26:	aload_0
   27:	getfield	#20; //Field groupNames:Lscala/collection/Sequence;
   30:	invokespecial	#76; //Method scala/util/matching/Regex$Match."<init>":(Ljava/lang/CharSequence;Ljava/util/regex/Matcher;Lscala/collection/Sequence;)V
   33:	invokespecial	#79; //Method scala/Some."<init>":(Ljava/lang/Object;)V
   36:	goto	42
   39:	getstatic	#85; //Field scala/None$.MODULE$:Lscala/None$;
   42:	areturn
  LineNumberTable: 
   line 91: 0
   line 92: 9
   line 90: 42

  LocalVariableTable: 
   Start  Length  Slot  Name   Signature
   0      43      0    this       Lscala/util/matching/Regex;
   0      43      1    source       Ljava/lang/CharSequence;
   9      34      2    m       Ljava/util/regex/Matcher;

  Signature: length = 0x2
   00 57 

public scala.Option findPrefixOf(java.lang.CharSequence);
  Code:
   Stack=3, Locals=3, Args_size=2
   0:	aload_0
   1:	invokevirtual	#44; //Method pattern:()Ljava/util/regex/Pattern;
   4:	aload_1
   5:	invokevirtual	#48; //Method java/util/regex/Pattern.matcher:(Ljava/lang/CharSequence;)Ljava/util/regex/Matcher;
   8:	astore_2
   9:	aload_2
   10:	invokevirtual	#69; //Method java/util/regex/Matcher.lookingAt:()Z
   13:	ifeq	30
   16:	new	#71; //class scala/Some
   19:	dup
   20:	aload_2
   21:	invokevirtual	#91; //Method java/util/regex/Matcher.group:()Ljava/lang/String;
   24:	invokespecial	#79; //Method scala/Some."<init>":(Ljava/lang/Object;)V
   27:	goto	33
   30:	getstatic	#85; //Field scala/None$.MODULE$:Lscala/None$;
   33:	areturn
  LineNumberTable: 
   line 82: 0
   line 83: 9
   line 81: 33

  LocalVariableTable: 
   Start  Length  Slot  Name   Signature
   0      34      0    this       Lscala/util/matching/Regex;
   0      34      1    source       Ljava/lang/CharSequence;
   9      25      2    m       Ljava/util/regex/Matcher;

  Signature: length = 0x2
   00 5C 

public scala.Option findFirstMatchIn(java.lang.CharSequence);
  Code:
   Stack=7, Locals=3, Args_size=2
   0:	aload_0
   1:	invokevirtual	#44; //Method pattern:()Ljava/util/regex/Pattern;
   4:	aload_1
   5:	invokevirtual	#48; //Method java/util/regex/Pattern.matcher:(Ljava/lang/CharSequence;)Ljava/util/regex/Matcher;
   8:	astore_2
   9:	aload_2
   10:	invokevirtual	#96; //Method java/util/regex/Matcher.find:()Z
   13:	ifeq	39
   16:	new	#71; //class scala/Some
   19:	dup
   20:	new	#73; //class scala/util/matching/Regex$Match
   23:	dup
   24:	aload_1
   25:	aload_2
   26:	aload_0
   27:	getfield	#20; //Field groupNames:Lscala/collection/Sequence;
   30:	invokespecial	#76; //Method scala/util/matching/Regex$Match."<init>":(Ljava/lang/CharSequence;Ljava/util/regex/Matcher;Lscala/collection/Sequence;)V
   33:	invokespecial	#79; //Method scala/Some."<init>":(Ljava/lang/Object;)V
   36:	goto	42
   39:	getstatic	#85; //Field scala/None$.MODULE$:Lscala/None$;
   42:	areturn
  LineNumberTable: 
   line 73: 0
   line 74: 9
   line 72: 42

  LocalVariableTable: 
   Start  Length  Slot  Name   Signature
   0      43      0    this       Lscala/util/matching/Regex;
   0      43      1    source       Ljava/lang/CharSequence;
   9      34      2    m       Ljava/util/regex/Matcher;

  Signature: length = 0x2
   00 57 

public scala.Option findFirstIn(java.lang.CharSequence);
  Code:
   Stack=3, Locals=3, Args_size=2
   0:	aload_0
   1:	invokevirtual	#44; //Method pattern:()Ljava/util/regex/Pattern;
   4:	aload_1
   5:	invokevirtual	#48; //Method java/util/regex/Pattern.matcher:(Ljava/lang/CharSequence;)Ljava/util/regex/Matcher;
   8:	astore_2
   9:	aload_2
   10:	invokevirtual	#96; //Method java/util/regex/Matcher.find:()Z
   13:	ifeq	30
   16:	new	#71; //class scala/Some
   19:	dup
   20:	aload_2
   21:	invokevirtual	#91; //Method java/util/regex/Matcher.group:()Ljava/lang/String;
   24:	invokespecial	#79; //Method scala/Some."<init>":(Ljava/lang/Object;)V
   27:	goto	33
   30:	getstatic	#85; //Field scala/None$.MODULE$:Lscala/None$;
   33:	areturn
  LineNumberTable: 
   line 65: 0
   line 66: 9
   line 64: 33

  LocalVariableTable: 
   Start  Length  Slot  Name   Signature
   0      34      0    this       Lscala/util/matching/Regex;
   0      34      1    source       Ljava/lang/CharSequence;
   9      25      2    m       Ljava/util/regex/Matcher;

  Signature: length = 0x2
   00 5C 

public scala.util.matching.Regex$MatchIterator findAllIn(java.lang.CharSequence);
  Code:
   Stack=5, Locals=2, Args_size=2
   0:	new	#101; //class scala/util/matching/Regex$MatchIterator
   3:	dup
   4:	aload_1
   5:	aload_0
   6:	aload_0
   7:	getfield	#20; //Field groupNames:Lscala/collection/Sequence;
   10:	invokespecial	#104; //Method scala/util/matching/Regex$MatchIterator."<init>":(Ljava/lang/CharSequence;Lscala/util/matching/Regex;Lscala/collection/Sequence;)V
   13:	areturn
  LineNumberTable: 
   line 59: 0

  LocalVariableTable: 
   Start  Length  Slot  Name   Signature
   0      14      0    this       Lscala/util/matching/Regex;
   0      14      1    source       Ljava/lang/CharSequence;


public scala.Option unapplySeq(java.lang.Object);
  Code:
   Stack=7, Locals=9, Args_size=2
   0:	aload_1
   1:	astore_2
   2:	aload_2
   3:	instanceof	#108; //class java/lang/CharSequence
   6:	ifeq	93
   9:	aload_2
   10:	checkcast	#108; //class java/lang/CharSequence
   13:	astore_3
   14:	aload_3
   15:	astore	4
   17:	aload_0
   18:	invokevirtual	#44; //Method pattern:()Ljava/util/regex/Pattern;
   21:	aload	4
   23:	invokevirtual	#48; //Method java/util/regex/Pattern.matcher:(Ljava/lang/CharSequence;)Ljava/util/regex/Matcher;
   26:	astore	5
   28:	aload	5
   30:	invokevirtual	#111; //Method java/util/regex/Matcher.matches:()Z
   33:	ifeq	87
   36:	new	#71; //class scala/Some
   39:	dup
   40:	getstatic	#116; //Field scala/Predef$.MODULE$:Lscala/Predef$;
   43:	iconst_1
   44:	invokevirtual	#120; //Method scala/Predef$.intWrapper:(I)Lscala/runtime/RichInt;
   47:	aload	5
   49:	invokevirtual	#124; //Method java/util/regex/Matcher.groupCount:()I
   52:	invokevirtual	#130; //Method scala/runtime/RichInt.to:(I)Lscala/Range;
   55:	invokeinterface	#136,  1; //InterfaceMethod scala/collection/generic/TraversableTemplate.toList:()Lscala/collection/immutable/List;
   60:	new	#138; //class scala/util/matching/Regex$$anonfun$unapplySeq$1
   63:	dup
   64:	aload_0
   65:	aload	5
   67:	invokespecial	#141; //Method scala/util/matching/Regex$$anonfun$unapplySeq$1."<init>":(Lscala/util/matching/Regex;Ljava/util/regex/Matcher;)V
   70:	getstatic	#146; //Field scala/collection/immutable/List$.MODULE$:Lscala/collection/immutable/List$;
   73:	invokevirtual	#150; //Method scala/collection/immutable/List$.builderFactory:()Lscala/collection/generic/BuilderFactory;
   76:	invokeinterface	#154,  3; //InterfaceMethod scala/collection/generic/TraversableTemplate.map:(Lscala/Function1;Lscala/collection/generic/BuilderFactory;)Ljava/lang/Object;
   81:	invokespecial	#79; //Method scala/Some."<init>":(Ljava/lang/Object;)V
   84:	goto	142
   87:	getstatic	#85; //Field scala/None$.MODULE$:Lscala/None$;
   90:	goto	142
   93:	aload_2
   94:	instanceof	#73; //class scala/util/matching/Regex$Match
   97:	ifeq	139
   100:	aload_2
   101:	checkcast	#73; //class scala/util/matching/Regex$Match
   104:	astore	6
   106:	getstatic	#159; //Field scala/util/matching/Regex$Match$.MODULE$:Lscala/util/matching/Regex$Match$;
   109:	aload	6
   111:	invokevirtual	#163; //Method scala/util/matching/Regex$Match$.unapply:(Lscala/util/matching/Regex$Match;)Lscala/Some;
   114:	astore	7
   116:	iconst_1
   117:	ifeq	139
   120:	aload	7
   122:	invokevirtual	#167; //Method scala/Some.get:()Ljava/lang/Object;
   125:	checkcast	#169; //class java/lang/String
   128:	astore	8
   130:	aload_0
   131:	aload	8
   133:	invokevirtual	#171; //Method unapplySeq:(Ljava/lang/Object;)Lscala/Option;
   136:	goto	142
   139:	getstatic	#85; //Field scala/None$.MODULE$:Lscala/None$;
   142:	areturn
  LineNumberTable: 
   line 46: 0
   line 47: 14
   line 48: 17
   line 49: 28
   line 50: 87
   line 46: 93
   line 51: 106
   line 294: 116
   line 51: 120
   line 52: 130
   line 51: 131
   line 52: 133
   line 54: 139
   line 46: 142

  LocalVariableTable: 
   Start  Length  Slot  Name   Signature
   0      143      0    this       Lscala/util/matching/Regex;
   0      143      1    target       Ljava/lang/Object;
   2      141      2    temp1       Ljava/lang/Object;
   14      79      3    temp2       Ljava/lang/CharSequence;
   17      76      4    s       Ljava/lang/CharSequence;
   28      65      5    m$1       Ljava/util/regex/Matcher;
   106      36      6    temp3       Lscala/util/matching/Regex$Match;
   116      26      7    temp4       Lscala/Some;
   130      6      8    temp5       Ljava/lang/String;

  Signature: length = 0x2
   00 FFFFFFB6 

public java.util.regex.Pattern pattern();
  Code:
   Stack=1, Locals=1, Args_size=1
   0:	aload_0
   1:	getfield	#33; //Field pattern:Ljava/util/regex/Pattern;
   4:	areturn
  LineNumberTable: 
   line 38: 0


}

