Compiled from "Regex.scala"
public class scala.util.matching.Regex extends java.lang.Object implements scala.ScalaObject,java.io.Serializable
  SourceFile: "Regex.scala"
  ScalaSig: length = 0xBAF
   05 00 FFFFFF83 05 06 08 01 02 FFFFFF84 FFFFFF80 FFFFFF80 FFFFFF80 00 09 02 05
   52 65 67 65 78 0A 02 03 04 01 08 6D 61 74 63 68
   69 6E 67 0A 02 05 06 01 04 75 74 69 6C 0A 01 07
   01 05 73 63 61 6C 61 03 00 13 03 00 0A 12 10 02
   0B 10 0D 01 0C 0A 02 0D 0E 01 04 6C 61 6E 67 0A
   01 0F 01 04 6A 61 76 61 09 02 11 0C 02 06 4F 62
   6A 65 63 74 10 02 13 14 0D 01 06 09 02 15 06 02
   0B 53 63 61 6C 61 4F 62 6A 65 63 74 08 08 17 00
   FFFFFF82 FFFFFF80 FFFFFFA0 FFFFFF80 04 18 01 05 72 65 67 65 78 10 02 19
   1C 0E 02 13 1A 09 02 1B 06 01 06 50 72 65 64 65
   66 09 02 1D 1E 02 06 53 74 72 69 6E 67 0A 02 1B
   06 08 08 20 00 FFFFFF82 FFFFFF80 FFFFFFA0 FFFFFF80 04 21 01 0A 67 72 6F
   75 70 4E 61 6D 65 73 10 03 13 22 18 09 02 23 06
   02 0A 3C 72 65 70 65 61 74 65 64 3E 08 05 25 00
   FFFFFF84 00 26 01 06 3C 69 6E 69 74 3E 14 03 27 29 2A
   10 02 28 00 0D 01 02 08 05 17 24 FFFFFFC0 00 18 08 05
   20 24 FFFFFFC0 00 21 08 07 2C 00 FFFFFFC2 FFFFFF80 FFFFFF84 00 2D 01 07
   70 61 74 74 65 72 6E 15 01 2E 10 02 2F 32 0D 01
   30 0A 02 17 31 0A 02 05 0E 09 02 33 30 02 07 50
   61 74 74 65 72 6E 08 06 35 00 FFFFFFA0 FFFFFF80 04 2E 01 08
   70 61 74 74 65 72 6E 20 08 05 37 00 FFFFFF84 00 38 01
   0A 75 6E 61 70 70 6C 79 53 65 71 14 02 39 44 10
   03 13 3A 3C 09 02 3B 06 02 06 4F 70 74 69 6F 6E
   10 03 3D 42 18 0D 01 3E 0A 02 3F 40 01 09 69 6D
   6D 75 74 61 62 6C 65 0A 02 41 06 01 0A 63 6F 6C
   6C 65 63 74 69 6F 6E 09 02 43 3E 02 04 4C 69 73
   74 08 05 45 36 FFFFFFC0 00 46 01 06 74 61 72 67 65 74
   10 02 13 47 09 02 48 06 02 03 41 6E 79 08 05 4A
   00 FFFFFF84 00 4B 01 09 66 69 6E 64 41 6C 6C 49 6E 14
   03 4C FFFFFF82 48 10 03 4D FFFFFF81 6C 0E 02 28 4E 07 05 4F
   02 FFFFFF88 02 50 01 05 52 65 67 65 78 10 02 28 51 06
   08 01 02 FFFFFF84 FFFFFF80 FFFFFF80 FFFFFF88 02 52 13 03 51 0A 12 08 05
   25 51 FFFFFF84 00 54 14 01 50 06 08 56 51 FFFFFF84 FFFFFF90 FFFFFF80 FFFFFF81
   00 57 02 09 4D 61 74 63 68 44 61 74 61 13 03 55
   0A 12 08 05 59 55 FFFFFF84 00 5A 01 06 24 69 6E 69 74
   24 14 01 5B 10 02 13 5C 09 02 5D 06 02 04 55 6E
   69 74 08 07 5F 55 FFFFFFC2 FFFFFF80 FFFFFF86 00 60 01 06 73 6F 75
   72 63 65 15 01 61 10 02 0B 62 09 02 63 0C 02 0C
   43 68 61 72 53 65 71 75 65 6E 63 65 08 07 20 55
   FFFFFFC2 FFFFFF80 FFFFFF86 00 65 15 01 66 10 03 67 68 18 0D 01 40
   09 02 69 40 02 03 53 65 71 08 05 6B 55 FFFFFF86 00 6C
   01 0A 67 72 6F 75 70 43 6F 75 6E 74 15 01 6D 10
   02 13 6E 09 02 6F 06 02 03 49 6E 74 08 05 71 55
   FFFFFF86 00 6C 01 05 73 74 61 72 74 08 05 71 55 FFFFFF86 00
   73 14 02 6D 74 08 05 75 72 FFFFFFC0 00 6D 01 01 69 08
   05 77 55 FFFFFF86 00 6C 01 03 65 6E 64 08 05 77 55 FFFFFF86
   00 79 14 02 6D 7A 08 05 75 78 FFFFFFC0 00 6D 08 05 7C
   55 FFFFFF84 00 7D 01 07 6D 61 74 63 68 65 64 15 01 18
   08 06 7F 55 FFFFFF84 00 FFFFFF81 00 01 05 67 72 6F 75 70 14
   03 18 FFFFFF81 01 08 05 75 7E FFFFFFC0 00 6D 08 07 FFFFFF81 03 55
   FFFFFF84 00 FFFFFF81 04 01 09 73 75 62 67 72 6F 75 70 73 15
   01 3C 08 06 FFFFFF81 06 55 FFFFFF84 00 60 01 06 62 65 66 6F
   72 65 08 07 FFFFFF81 06 55 FFFFFF84 00 FFFFFF81 08 14 03 61 FFFFFF81 09
   08 06 75 FFFFFF81 07 FFFFFFC0 00 6D 08 06 FFFFFF81 0B 55 FFFFFF84 00 60
   01 05 61 66 74 65 72 08 07 FFFFFF81 0B 55 FFFFFF84 00 FFFFFF81 0D
   14 03 61 FFFFFF81 0E 08 06 75 FFFFFF81 0C FFFFFFC0 00 6D 08 0A FFFFFF81
   10 55 FFFFFF88 FFFFFFC2 FFFFFF80 FFFFFF84 04 FFFFFF81 11 01 0B 6E 61 6D 65 54
   6F 49 6E 64 65 78 15 02 FFFFFF81 12 10 05 19 FFFFFF81 13 18
   6D 09 03 FFFFFF81 14 1E 02 03 4D 61 70 08 0A FFFFFF81 16 55
   FFFFFF88 FFFFFF80 FFFFFFA0 FFFFFFA0 04 FFFFFF81 12 01 0C 6E 61 6D 65 54 6F 49
   6E 64 65 78 20 08 06 7F 55 FFFFFF84 00 FFFFFF81 18 14 03 18
   FFFFFF81 19 08 07 FFFFFF81 1A FFFFFF81 17 FFFFFFC0 00 18 01 02 69 64 08
   07 FFFFFF81 1C 55 FFFFFF84 20 FFFFFF81 1D 01 08 74 6F 53 74 72 69
   6E 67 14 01 18 06 0A FFFFFF81 1F 51 FFFFFF84 FFFFFF80 FFFFFF80 FFFFFF80 00 FFFFFF81
   20 02 05 4D 61 74 63 68 13 06 FFFFFF81 1E 0A FFFFFF81 21 12
   10 03 FFFFFF81 22 55 0D 01 51 08 09 5F FFFFFF81 1E FFFFFF82 FFFFFFC2 FFFFFF80
   FFFFFF84 00 60 08 0A FFFFFF81 25 FFFFFF81 1E FFFFFF82 FFFFFF80 FFFFFFA0 FFFFFF80 04 61 01
   07 73 6F 75 72 63 65 20 08 0B FFFFFF81 27 FFFFFF81 1E FFFFFF82 FFFFFF80
   FFFFFFA0 FFFFFF80 04 FFFFFF81 28 01 07 6D 61 74 63 68 65 72 10 03
   2F FFFFFF81 29 09 03 FFFFFF81 2A 30 02 07 4D 61 74 63 68 65
   72 08 09 20 FFFFFF81 1E FFFFFF82 FFFFFFC2 FFFFFF80 FFFFFF84 00 65 08 0A FFFFFF81 2D
   FFFFFF81 1E FFFFFF82 FFFFFF80 FFFFFFA0 FFFFFF80 04 66 01 0B 67 72 6F 75 70 4E
   61 6D 65 73 20 08 07 25 FFFFFF81 1E FFFFFF84 00 FFFFFF81 2F 14 08
   FFFFFF81 30 FFFFFF81 31 FFFFFF81 32 FFFFFF81 33 10 04 FFFFFF81 22 FFFFFF81 1E 08 06
   5F FFFFFF81 2E FFFFFFC0 00 61 08 08 FFFFFF81 27 FFFFFF81 2E FFFFFFC0 00 FFFFFF81 28
   08 06 20 FFFFFF81 2E FFFFFFC0 00 66 08 08 71 FFFFFF81 1E FFFFFFC2 FFFFFF80 FFFFFF84
   00 6C 08 08 FFFFFF81 36 FFFFFF81 1E FFFFFFA0 FFFFFF80 04 6D 01 06 73 74
   61 72 74 20 08 08 77 FFFFFF81 1E FFFFFFC2 FFFFFF80 FFFFFF84 00 6C 08 08
   FFFFFF81 39 FFFFFF81 1E FFFFFFA0 FFFFFF80 04 6D 01 04 65 6E 64 20 08 06
   6B FFFFFF81 1E FFFFFF84 00 6C 08 0B FFFFFF81 3C FFFFFF81 1E FFFFFF88 FFFFFFC2 FFFFFF80 FFFFFF84
   04 FFFFFF81 3D 01 06 73 74 61 72 74 73 15 02 FFFFFF81 3E 10
   04 13 FFFFFF81 3F 6D 09 03 FFFFFF81 40 06 02 05 41 72 72 61
   79 08 0B FFFFFF81 42 FFFFFF81 1E FFFFFF88 FFFFFF80 FFFFFFA0 FFFFFFA0 04 FFFFFF81 3E 01 07
   73 74 61 72 74 73 20 08 0B FFFFFF81 44 FFFFFF81 1E FFFFFF88 FFFFFFC2 FFFFFF80
   FFFFFF84 04 FFFFFF81 3D 01 04 65 6E 64 73 08 0B FFFFFF81 46 FFFFFF81 1E
   FFFFFF88 FFFFFF80 FFFFFFA0 FFFFFFA0 04 FFFFFF81 3E 01 05 65 6E 64 73 20 08 07
   71 FFFFFF81 1E FFFFFF84 00 FFFFFF81 48 14 03 6D FFFFFF81 49 08 06 75 FFFFFF81
   47 FFFFFFC0 00 6D 08 07 77 FFFFFF81 1E FFFFFF84 00 FFFFFF81 4B 14 03 6D
   FFFFFF81 4C 08 06 75 FFFFFF81 4A FFFFFFC0 00 6D 08 08 FFFFFF81 4E FFFFFF81 1E
   FFFFFF84 00 FFFFFF81 4F 01 05 66 6F 72 63 65 15 02 FFFFFF81 50 0D
   02 FFFFFF81 1E 07 07 FFFFFF81 52 51 FFFFFF88 02 FFFFFF81 53 01 05 4D 61
   74 63 68 10 04 FFFFFF81 22 FFFFFF81 54 06 0A FFFFFF81 1F 51 FFFFFF84 FFFFFF80
   FFFFFF80 FFFFFF88 02 FFFFFF81 55 13 04 FFFFFF81 54 0A 12 08 07 25 FFFFFF81 54
   FFFFFF84 00 FFFFFF81 57 14 02 FFFFFF81 53 08 08 FFFFFF81 59 FFFFFF81 54 FFFFFF84 00
   FFFFFF81 5A 01 07 75 6E 61 70 70 6C 79 14 04 FFFFFF81 5B FFFFFF81
   5E 10 04 13 FFFFFF81 5C 18 09 03 FFFFFF81 5D 06 02 04 53 6F
   6D 65 08 08 FFFFFF81 5F FFFFFF81 58 FFFFFFC0 00 FFFFFF81 30 01 01 6D 07
   07 FFFFFF81 61 51 FFFFFF88 02 FFFFFF81 62 01 06 47 72 6F 75 70 73
   10 04 FFFFFF81 22 FFFFFF81 63 06 0A FFFFFF81 64 51 FFFFFF84 FFFFFF80 FFFFFF80 FFFFFF88 02
   FFFFFF81 65 02 06 47 72 6F 75 70 73 13 04 FFFFFF81 63 0A 12
   08 07 25 FFFFFF81 63 FFFFFF84 00 FFFFFF81 67 14 02 FFFFFF81 62 08 07 37
   FFFFFF81 63 FFFFFF84 00 FFFFFF81 69 14 04 FFFFFF81 6A FFFFFF81 6B 10 03 13 3A
   66 08 08 FFFFFF81 5F FFFFFF81 68 FFFFFFC0 00 FFFFFF81 30 06 0A FFFFFF81 6D 51
   FFFFFF84 FFFFFF80 FFFFFF80 FFFFFF80 00 FFFFFF81 6E 02 0D 4D 61 74 63 68 49 74
   65 72 61 74 6F 72 13 08 FFFFFF81 6C 0A FFFFFF81 6F FFFFFF81 21 12
   10 04 67 FFFFFF81 70 18 09 03 FFFFFF81 71 40 02 08 49 74 65
   72 61 74 6F 72 08 09 5F FFFFFF81 6C FFFFFF82 FFFFFFC2 FFFFFF80 FFFFFF84 00 60
   08 0A FFFFFF81 25 FFFFFF81 6C FFFFFF82 FFFFFF80 FFFFFFA0 FFFFFF80 04 61 08 0A 17 FFFFFF81
   6C FFFFFF82 FFFFFFC2 FFFFFF80 FFFFFF84 00 FFFFFF81 75 15 01 27 08 0A FFFFFF81 77 FFFFFF81
   6C FFFFFF82 FFFFFF80 FFFFFFA0 FFFFFF80 04 27 01 06 72 65 67 65 78 20 08
   09 20 FFFFFF81 6C FFFFFF82 FFFFFFC2 FFFFFF80 FFFFFF84 00 65 08 0A FFFFFF81 2D FFFFFF81 6C
   FFFFFF82 FFFFFF80 FFFFFFA0 FFFFFF80 04 66 08 07 25 FFFFFF81 6C FFFFFF84 00 FFFFFF81 7B 14
   08 FFFFFF81 7C FFFFFF81 7D FFFFFF81 7E FFFFFF81 7F 10 04 FFFFFF81 22 FFFFFF81 6C 08
   06 5F FFFFFF81 7A FFFFFFC0 00 61 08 06 17 FFFFFF81 7A FFFFFFC0 00 27 08
   06 20 FFFFFF81 7A FFFFFFC0 00 66 08 0A FFFFFF81 27 FFFFFF81 6C FFFFFFC2 FFFFFF80 FFFFFF84
   08 FFFFFF82 01 15 02 FFFFFF81 28 08 09 FFFFFF82 03 FFFFFF81 6C FFFFFFA0 FFFFFF80 04
   FFFFFF81 28 01 08 6D 61 74 63 68 65 72 20 08 0A FFFFFF82 05
   FFFFFF81 6C FFFFFFC0 FFFFFF80 FFFFFF84 04 FFFFFF82 06 01 08 6E 65 78 74 53 65
   65 6E 15 02 FFFFFF82 07 10 03 13 FFFFFF82 08 09 03 FFFFFF82 09 06
   02 07 42 6F 6F 6C 65 61 6E 08 0A FFFFFF82 0B FFFFFF81 6C FFFFFFC0
   FFFFFF80 FFFFFF84 04 FFFFFF82 0C 01 0C 6E 65 78 74 53 65 65 6E 5F
   24 65 71 14 03 5B FFFFFF82 0D 08 0A FFFFFF82 0E FFFFFF82 0A FFFFFF81 FFFFFF80
   FFFFFFC0 00 FFFFFF82 07 01 03 78 24 31 08 09 FFFFFF82 10 FFFFFF81 6C FFFFFFA0
   FFFFFFA0 04 FFFFFF82 07 01 09 6E 65 78 74 53 65 65 6E 20 08
   08 FFFFFF82 12 FFFFFF81 6C FFFFFF84 00 FFFFFF82 06 01 07 68 61 73 4E 65
   78 74 08 08 FFFFFF82 14 FFFFFF81 6C FFFFFF84 00 FFFFFF81 1D 01 04 6E 65
   78 74 08 08 FFFFFF81 1C FFFFFF81 6C FFFFFF84 20 FFFFFF82 16 14 02 FFFFFF82 17
   10 03 0B FFFFFF82 18 09 02 1D 0C 08 06 71 FFFFFF81 6C FFFFFF84 00
   6C 08 07 71 FFFFFF81 6C FFFFFF84 00 FFFFFF82 1B 14 03 6D FFFFFF82 1C 08
   06 75 FFFFFF82 1A FFFFFFC0 00 6D 08 06 77 FFFFFF81 6C FFFFFF84 00 6C 08
   07 77 FFFFFF81 6C FFFFFF84 00 FFFFFF82 1F 14 03 6D FFFFFF82 20 08 06 75
   FFFFFF82 1E FFFFFFC0 00 6D 08 06 6B FFFFFF81 6C FFFFFF84 00 6C 08 08 FFFFFF82
   23 FFFFFF81 6C FFFFFF84 00 FFFFFF82 24 01 09 6D 61 74 63 68 44 61
   74 61 15 02 FFFFFF82 25 12 05 FFFFFF82 26 0A FFFFFF82 28 06 0B FFFFFF82
   27 FFFFFF82 22 FFFFFF84 FFFFFF80 FFFFFF80 FFFFFF80 00 FFFFFF82 25 02 0C 3C 72 65 66
   69 6E 65 6D 65 6E 74 3E 10 05 67 FFFFFF81 70 FFFFFF81 30 08
   09 FFFFFF82 2A FFFFFF81 6C FFFFFF84 00 02 FFFFFF82 2B 01 0F 72 65 70 6C
   61 63 65 6D 65 6E 74 44 61 74 61 15 02 FFFFFF82 2C 12
   07 FFFFFF82 2D 0A FFFFFF82 28 FFFFFF82 2E 06 0B FFFFFF82 27 FFFFFF82 29 FFFFFF84 FFFFFF80
   FFFFFF80 FFFFFF80 00 FFFFFF82 2C 10 04 FFFFFF81 22 FFFFFF82 2F 06 0B FFFFFF82 30 51
   FFFFFF84 FFFFFF90 FFFFFF80 FFFFFF81 00 02 FFFFFF82 31 02 0B 52 65 70 6C 61 63
   65 6D 65 6E 74 13 04 FFFFFF82 2F 0A 12 08 06 59 FFFFFF82 2F
   FFFFFF84 00 5A 08 08 FFFFFF81 27 FFFFFF82 2F FFFFFF86 08 FFFFFF82 01 08 0A FFFFFF82
   35 FFFFFF82 2F FFFFFFC0 FFFFFF80 FFFFFF84 04 FFFFFF82 36 01 02 73 62 15 02 FFFFFF82
   37 10 03 0B FFFFFF82 38 09 03 FFFFFF82 39 0C 02 0C 53 74 72
   69 6E 67 42 75 66 66 65 72 08 0A FFFFFF82 3B FFFFFF82 2F FFFFFFC0
   FFFFFF80 FFFFFF84 04 FFFFFF82 3C 01 06 73 62 5F 24 65 71 14 03 5B
   FFFFFF82 3D 08 0A FFFFFF82 0E FFFFFF82 3A FFFFFF81 FFFFFF80 FFFFFFC0 00 FFFFFF82 37 08 09
   FFFFFF82 3F FFFFFF82 2F FFFFFFA0 FFFFFFA0 04 FFFFFF82 37 01 03 73 62 20 08 08
   FFFFFF82 41 FFFFFF82 2F FFFFFF84 00 FFFFFF82 42 01 08 72 65 70 6C 61 63
   65 64 15 02 FFFFFF82 17 08 08 FFFFFF82 44 FFFFFF82 2F FFFFFF84 00 FFFFFF82 45
   01 07 72 65 70 6C 61 63 65 14 04 FFFFFF81 28 FFFFFF82 46 08
   07 FFFFFF82 47 FFFFFF82 43 FFFFFFC0 00 18 01 02 72 73 08 05 5F 49
   FFFFFFC0 00 61 08 07 FFFFFF82 4A 00 FFFFFF84 00 FFFFFF82 4B 01 0B 66 69
   6E 64 46 69 72 73 74 49 6E 14 04 FFFFFF82 4C FFFFFF82 4D 10
   03 13 3A 18 08 06 5F FFFFFF82 49 FFFFFFC0 00 61 08 07 FFFFFF82 4F
   00 FFFFFF84 00 FFFFFF82 50 01 10 66 69 6E 64 46 69 72 73 74
   4D 61 74 63 68 49 6E 14 04 FFFFFF82 51 FFFFFF82 53 10 04 13
   3A FFFFFF82 52 10 03 4D FFFFFF81 1E 08 06 5F FFFFFF82 4E FFFFFFC0 00 61
   08 07 FFFFFF82 55 00 FFFFFF84 00 FFFFFF82 56 01 0C 66 69 6E 64 50
   72 65 66 69 78 4F 66 14 04 FFFFFF82 4C FFFFFF82 57 08 06 5F
   FFFFFF82 54 FFFFFFC0 00 61 08 07 FFFFFF82 59 00 FFFFFF84 00 FFFFFF82 5A 01 11
   66 69 6E 64 50 72 65 66 69 78 4D 61 74 63 68 4F
   66 14 04 FFFFFF82 51 FFFFFF82 5B 08 06 5F FFFFFF82 58 FFFFFFC0 00 61 08
   07 FFFFFF82 5D 00 FFFFFF84 00 FFFFFF82 5E 01 0C 72 65 70 6C 61 63
   65 41 6C 6C 49 6E 14 05 18 FFFFFF82 5F FFFFFF82 60 08 06 45
   FFFFFF82 5C FFFFFFC0 00 61 08 07 FFFFFF82 61 FFFFFF82 5C FFFFFFC0 00 18 01 0B
   72 65 70 6C 61 63 65 6D 65 6E 74 08 07 FFFFFF82 5D 00
   FFFFFF84 00 FFFFFF82 63 14 05 18 FFFFFF82 64 FFFFFF82 65 08 06 45 FFFFFF82 62
   FFFFFFC0 00 61 08 08 FFFFFF82 66 FFFFFF82 62 FFFFFFC0 00 FFFFFF82 67 01 08 72
   65 70 6C 61 63 65 72 10 05 13 FFFFFF82 68 18 18 09 03
   FFFFFF82 69 06 02 09 46 75 6E 63 74 69 6F 6E 31 08 07
   FFFFFF82 6B 00 FFFFFF84 00 FFFFFF82 6C 01 13 72 65 70 6C 61 63 65
   41 6C 6C 4D 61 74 63 68 65 73 49 6E 14 05 18 FFFFFF82
   6D FFFFFF82 6E 08 06 45 FFFFFF82 6A FFFFFFC0 00 61 08 08 FFFFFF82 66 FFFFFF82
   6A FFFFFFC0 00 FFFFFF82 6F 10 06 13 FFFFFF82 68 FFFFFF82 52 18 08 07 FFFFFF82
   71 00 FFFFFF84 00 FFFFFF82 72 01 0E 72 65 70 6C 61 63 65 46
   69 72 73 74 49 6E 14 05 18 FFFFFF82 73 FFFFFF82 74 08 06 45
   FFFFFF82 70 FFFFFFC0 00 61 08 07 FFFFFF82 61 FFFFFF82 70 FFFFFFC0 00 18 08 07
   FFFFFF82 76 00 FFFFFF84 00 FFFFFF82 77 01 05 73 70 6C 69 74 14 04
   FFFFFF82 78 FFFFFF82 79 10 04 13 FFFFFF81 3F 18 08 07 FFFFFF82 7A FFFFFF82 75
   FFFFFFC0 00 61 01 07 74 6F 53 70 6C 69 74 08 07 FFFFFF81 1C
   00 FFFFFF84 20 FFFFFF81 1D 28 05 00 FFFFFF82 7D FFFFFF83 00 10 03 13 FFFFFF82
   7E 09 03 FFFFFF82 7F 06 02 10 53 65 72 69 61 6C 56 65
   72 73 69 6F 6E 55 49 44 1E 08 FFFFFFE2 FFFFFFED FFFFFFD5 6A FFFFFF9E FFFFFFF0
   21 FFFFFFBF 28 03 00 FFFFFF83 02 10 03 13 FFFFFF83 03 09 03 FFFFFF83 04
   06 02 0C 73 65 72 69 61 6C 69 7A 61 62 6C 65 
  InnerClass: 
   public Match=class scala/util/matching/Regex$Match of class scala/util/matching/Regex
   public final $anon$1=class scala/util/matching/Regex$$anon$1 of class scala/util/matching/Regex
   public final $anon$1=class scala/collection/immutable/Range$$anon$1 of class scala/collection/immutable/Range
   public abstract MatchData=class scala/util/matching/Regex$MatchData of class scala/util/matching/Regex
   public Inclusive=class scala/collection/immutable/Range$Inclusive of class scala/collection/immutable/Range
   public abstract Replacement=class scala/util/matching/Regex$Replacement of class scala/util/matching/Regex
   public MatchIterator=class scala/util/matching/Regex$MatchIterator of class scala/util/matching/Regex
   public abstract MatchData$class=class scala/util/matching/Regex$MatchData$class of class scala/util/matching/Regex
   public abstract Replacement$class=class scala/util/matching/Regex$Replacement$class of class scala/util/matching/Regex
   public final $anonfun$unapplySeq$1=class scala/util/matching/Regex$$anonfun$unapplySeq$1 of class scala/util/matching/Regex
   public GenericCanBuildFrom=class scala/collection/generic/TraversableFactory$GenericCanBuildFrom of class scala/collection/generic/TraversableFactory
  minor version: 0
  major version: 49
  Constant pool:
Asciz	SourceFile;
Asciz	Regex.scala;
Asciz	<clinit>;
Asciz	()V;
Asciz	Code;
Asciz	serialVersionUID;
Asciz	J;
long	-2094783597747625537l;
Asciz	scala/util/matching/Regex;
class	scala/util/matching/Regex
NameAndType	serialVersionUID:J
Field	scala/util/matching/Regex.serialVersionUID:J
Asciz	pattern;
Asciz	Ljava/util/regex/Pattern;;
Asciz	scala$util$matching$Regex$$groupNames;
Asciz	Lscala/collection/Seq;;
Asciz	regex;
Asciz	Ljava/lang/String;;
Asciz	()Ljava/util/regex/Pattern;;
Asciz	LineNumberTable;
NameAndType	pattern:Ljava/util/regex/Pattern;
Field	scala/util/matching/Regex.pattern:Ljava/util/regex/Pattern;
Asciz	unapplySeq;
Asciz	(Ljava/lang/Object;)Lscala/Option;;
Asciz	java/lang/CharSequence;
class	java/lang/CharSequence
NameAndType	pattern:()Ljava/util/regex/Pattern;
Method	scala/util/matching/Regex.pattern:()Ljava/util/regex/Pattern;
Asciz	java/util/regex/Pattern;
class	java/util/regex/Pattern
Asciz	matcher;
Asciz	(Ljava/lang/CharSequence;)Ljava/util/regex/Matcher;;
NameAndType	matcher:(Ljava/lang/CharSequence;)Ljava/util/regex/Matcher;
Method	java/util/regex/Pattern.matcher:(Ljava/lang/CharSequence;)Ljava/util/regex/Matcher;
Asciz	java/util/regex/Matcher;
class	java/util/regex/Matcher
Asciz	matches;
Asciz	()Z;
NameAndType	matches:()Z
Method	java/util/regex/Matcher.matches:()Z
Asciz	scala/Some;
class	scala/Some
Asciz	groupCount;
Asciz	()I;
NameAndType	groupCount:()I
Method	java/util/regex/Matcher.groupCount:()I
Asciz	scala/collection/immutable/Range$$anon$1;
class	scala/collection/immutable/Range$$anon$1
Asciz	<init>;
Asciz	(II)V;
NameAndType	"<init>":(II)V
Method	scala/collection/immutable/Range$$anon$1."<init>":(II)V
Asciz	scala/collection/TraversableLike;
class	scala/collection/TraversableLike
Asciz	toList;
Asciz	()Lscala/collection/immutable/List;;
NameAndType	toList:()Lscala/collection/immutable/List;
InterfaceMethod	scala/collection/TraversableLike.toList:()Lscala/collection/immutable/List;
Asciz	scala/util/matching/Regex$$anonfun$unapplySeq$1;
class	scala/util/matching/Regex$$anonfun$unapplySeq$1
Asciz	(Lscala/util/matching/Regex;Ljava/util/regex/Matcher;)V;
NameAndType	"<init>":(Lscala/util/matching/Regex;Ljava/util/regex/Matcher;)V
Method	scala/util/matching/Regex$$anonfun$unapplySeq$1."<init>":(Lscala/util/matching/Regex;Ljava/util/regex/Matcher;)V
Asciz	scala/collection/immutable/List$;
class	scala/collection/immutable/List$
Asciz	MODULE$;
Asciz	Lscala/collection/immutable/List$;;
NameAndType	MODULE$:Lscala/collection/immutable/List$;
Field	scala/collection/immutable/List$.MODULE$:Lscala/collection/immutable/List$;
Asciz	scala/collection/generic/TraversableFactory$GenericCanBuildFrom;
class	scala/collection/generic/TraversableFactory$GenericCanBuildFrom
Asciz	(Lscala/collection/generic/TraversableFactory;)V;
NameAndType	"<init>":(Lscala/collection/generic/TraversableFactory;)V
Method	scala/collection/generic/TraversableFactory$GenericCanBuildFrom."<init>":(Lscala/collection/generic/TraversableFactory;)V
Asciz	map;
Asciz	(Lscala/Function1;Lscala/collection/generic/CanBuildFrom;)Ljava/lang/Object;;
NameAndType	map:(Lscala/Function1;Lscala/collection/generic/CanBuildFrom;)Ljava/lang/Object;
InterfaceMethod	scala/collection/TraversableLike.map:(Lscala/Function1;Lscala/collection/generic/CanBuildFrom;)Ljava/lang/Object;
Asciz	(Ljava/lang/Object;)V;
NameAndType	"<init>":(Ljava/lang/Object;)V
Method	scala/Some."<init>":(Ljava/lang/Object;)V
Asciz	scala/None$;
class	scala/None$
Asciz	Lscala/None$;;
NameAndType	MODULE$:Lscala/None$;
Field	scala/None$.MODULE$:Lscala/None$;
Asciz	scala/util/matching/Regex$Match;
class	scala/util/matching/Regex$Match
Asciz	scala/util/matching/Regex$MatchData;
class	scala/util/matching/Regex$MatchData
Asciz	matched;
Asciz	()Ljava/lang/String;;
NameAndType	matched:()Ljava/lang/String;
InterfaceMethod	scala/util/matching/Regex$MatchData.matched:()Ljava/lang/String;
Asciz	x;
Asciz	Ljava/lang/Object;;
NameAndType	x:Ljava/lang/Object;
Field	scala/Some.x:Ljava/lang/Object;
Asciz	java/lang/String;
class	java/lang/String
NameAndType	unapplySeq:(Ljava/lang/Object;)Lscala/Option;
Method	scala/util/matching/Regex.unapplySeq:(Ljava/lang/Object;)Lscala/Option;
Asciz	this;
Asciz	Lscala/util/matching/Regex;;
Asciz	target;
Asciz	temp2;
Asciz	Ljava/lang/CharSequence;;
Asciz	m$1;
Asciz	Ljava/util/regex/Matcher;;
Asciz	temp3;
Asciz	Lscala/util/matching/Regex$Match;;
Asciz	temp4;
Asciz	Lscala/Some;;
Asciz	temp5;
Asciz	LocalVariableTable;
Asciz	(Ljava/lang/Object;)Lscala/Option<Lscala/collection/immutable/List<Ljava/lang/String;>;>;;
Asciz	Signature;
Asciz	findAllIn;
Asciz	(Ljava/lang/CharSequence;)Lscala/util/matching/Regex$MatchIterator;;
Asciz	scala/util/matching/Regex$MatchIterator;
class	scala/util/matching/Regex$MatchIterator
NameAndType	scala$util$matching$Regex$$groupNames:Lscala/collection/Seq;
Field	scala/util/matching/Regex.scala$util$matching$Regex$$groupNames:Lscala/collection/Seq;
Asciz	(Ljava/lang/CharSequence;Lscala/util/matching/Regex;Lscala/collection/Seq;)V;
NameAndType	"<init>":(Ljava/lang/CharSequence;Lscala/util/matching/Regex;Lscala/collection/Seq;)V
Method	scala/util/matching/Regex$MatchIterator."<init>":(Ljava/lang/CharSequence;Lscala/util/matching/Regex;Lscala/collection/Seq;)V
Asciz	source;
Asciz	findFirstIn;
Asciz	(Ljava/lang/CharSequence;)Lscala/Option;;
Asciz	find;
NameAndType	find:()Z
Method	java/util/regex/Matcher.find:()Z
Asciz	group;
NameAndType	group:()Ljava/lang/String;
Method	java/util/regex/Matcher.group:()Ljava/lang/String;
Asciz	m;
Asciz	(Ljava/lang/CharSequence;)Lscala/Option<Ljava/lang/String;>;;
Asciz	findFirstMatchIn;
Asciz	(Ljava/lang/CharSequence;Ljava/util/regex/Matcher;Lscala/collection/Seq;)V;
NameAndType	"<init>":(Ljava/lang/CharSequence;Ljava/util/regex/Matcher;Lscala/collection/Seq;)V
Method	scala/util/matching/Regex$Match."<init>":(Ljava/lang/CharSequence;Ljava/util/regex/Matcher;Lscala/collection/Seq;)V
Asciz	(Ljava/lang/CharSequence;)Lscala/Option<Lscala/util/matching/Regex$Match;>;;
Asciz	findPrefixOf;
Asciz	lookingAt;
NameAndType	lookingAt:()Z
Method	java/util/regex/Matcher.lookingAt:()Z
Asciz	findPrefixMatchOf;
Asciz	replaceAllIn;
Asciz	(Ljava/lang/CharSequence;Ljava/lang/String;)Ljava/lang/String;;
Asciz	replaceAll;
Asciz	(Ljava/lang/String;)Ljava/lang/String;;
NameAndType	replaceAll:(Ljava/lang/String;)Ljava/lang/String;
Method	java/util/regex/Matcher.replaceAll:(Ljava/lang/String;)Ljava/lang/String;
Asciz	replacement;
Asciz	(Ljava/lang/CharSequence;Lscala/Function1;)Ljava/lang/String;;
Asciz	scala/util/matching/Regex$$anon$1;
class	scala/util/matching/Regex$$anon$1
Asciz	(Lscala/util/matching/Regex;Ljava/lang/CharSequence;)V;
NameAndType	"<init>":(Lscala/util/matching/Regex;Ljava/lang/CharSequence;)V
Method	scala/util/matching/Regex$$anon$1."<init>":(Lscala/util/matching/Regex;Ljava/lang/CharSequence;)V
Asciz	hasNext;
NameAndType	hasNext:()Z
Method	scala/util/matching/Regex$MatchIterator.hasNext:()Z
Asciz	next;
NameAndType	next:()Ljava/lang/String;
Method	scala/util/matching/Regex$MatchIterator.next:()Ljava/lang/String;
Asciz	scala/util/matching/Regex$Replacement;
class	scala/util/matching/Regex$Replacement
Asciz	scala/Function1;
class	scala/Function1
Asciz	apply;
Asciz	(Ljava/lang/Object;)Ljava/lang/Object;;
NameAndType	apply:(Ljava/lang/Object;)Ljava/lang/Object;
InterfaceMethod	scala/Function1.apply:(Ljava/lang/Object;)Ljava/lang/Object;
Asciz	replace;
Asciz	(Ljava/lang/String;)Ljava/util/regex/Matcher;;
NameAndType	replace:(Ljava/lang/String;)Ljava/util/regex/Matcher;
InterfaceMethod	scala/util/matching/Regex$Replacement.replace:(Ljava/lang/String;)Ljava/util/regex/Matcher;
Asciz	replaced;
NameAndType	replaced:()Ljava/lang/String;
InterfaceMethod	scala/util/matching/Regex$Replacement.replaced:()Ljava/lang/String;
Asciz	target$1;
Asciz	replacer;
Asciz	Lscala/Function1;;
Asciz	it;
Asciz	Lscala/util/matching/Regex$MatchIterator;;
Asciz	matchedString;
Asciz	(Ljava/lang/CharSequence;Lscala/Function1<Ljava/lang/String;Ljava/lang/String;>;)Ljava/lang/String;;
Asciz	replaceAllMatchesIn;
Asciz	replacementData;
Asciz	()Lscala/collection/Iterator;;
NameAndType	replacementData:()Lscala/collection/Iterator;
Method	scala/util/matching/Regex$MatchIterator.replacementData:()Lscala/collection/Iterator;
Asciz	scala/collection/Iterator;
class	scala/collection/Iterator
InterfaceMethod	scala/collection/Iterator.hasNext:()Z
Asciz	()Ljava/lang/Object;;
NameAndType	next:()Ljava/lang/Object;
InterfaceMethod	scala/collection/Iterator.next:()Ljava/lang/Object;
Asciz	Lscala/collection/Iterator;;
Asciz	matchdata;
Asciz	(Ljava/lang/CharSequence;Lscala/Function1<Lscala/util/matching/Regex$Match;Ljava/lang/String;>;)Ljava/lang/String;;
Asciz	replaceFirstIn;
Asciz	replaceFirst;
NameAndType	replaceFirst:(Ljava/lang/String;)Ljava/lang/String;
Method	java/util/regex/Matcher.replaceFirst:(Ljava/lang/String;)Ljava/lang/String;
Asciz	split;
Asciz	(Ljava/lang/CharSequence;)[Ljava/lang/String;;
NameAndType	split:(Ljava/lang/CharSequence;)[Ljava/lang/String;
Method	java/util/regex/Pattern.split:(Ljava/lang/CharSequence;)[Ljava/lang/String;
Asciz	toSplit;
Asciz	toString;
NameAndType	regex:Ljava/lang/String;
Field	scala/util/matching/Regex.regex:Ljava/lang/String;
Asciz	(Ljava/lang/String;Lscala/collection/Seq;)V;
Asciz	java/lang/Object;
class	java/lang/Object
NameAndType	"<init>":()V
Method	java/lang/Object."<init>":()V
Asciz	compile;
Asciz	(Ljava/lang/String;)Ljava/util/regex/Pattern;;
NameAndType	compile:(Ljava/lang/String;)Ljava/util/regex/Pattern;
Method	java/util/regex/Pattern.compile:(Ljava/lang/String;)Ljava/util/regex/Pattern;
Asciz	groupNames;
Asciz	(Ljava/lang/String;Lscala/collection/Seq<Ljava/lang/String;>;)V;
Asciz	ScalaSig;
Asciz	InnerClasses;
Asciz	Match;
Asciz	$anon$1;
Asciz	scala/collection/immutable/Range;
class	scala/collection/immutable/Range
Asciz	MatchData;
Asciz	scala/collection/immutable/Range$Inclusive;
class	scala/collection/immutable/Range$Inclusive
Asciz	Inclusive;
Asciz	Replacement;
Asciz	MatchIterator;
Asciz	scala/util/matching/Regex$MatchData$class;
class	scala/util/matching/Regex$MatchData$class
Asciz	MatchData$class;
Asciz	scala/util/matching/Regex$Replacement$class;
class	scala/util/matching/Regex$Replacement$class
Asciz	Replacement$class;
Asciz	$anonfun$unapplySeq$1;
Asciz	scala/collection/generic/TraversableFactory;
class	scala/collection/generic/TraversableFactory
Asciz	GenericCanBuildFrom;
Asciz	scala/ScalaObject;
class	scala/ScalaObject
Asciz	java/io/Serializable;
class	java/io/Serializable

{
public static final long serialVersionUID;
  Signature: J

private final java.util.regex.Pattern pattern;
  Signature: Ljava/util/regex/Pattern;

public final scala.collection.Seq scala$util$matching$Regex$$groupNames;
  Signature: Lscala/collection/Seq;

private final java.lang.String regex;
  Signature: Ljava/lang/String;

public static {};
  Signature: ()V
  Code:
   Stack=2, Locals=0, Args_size=0
	ldc2_w	long -2094783597747625537l
	putstatic	Field serialVersionUID:J
	return
  Labels:

public java.util.regex.Pattern pattern();
  Signature: ()Ljava/util/regex/Pattern;
  Code:
   Stack=1, Locals=1, Args_size=1
	aload_0
	getfield	Field pattern:Ljava/util/regex/Pattern;
	areturn
  Labels:

public scala.Option unapplySeq(java.lang.Object);
  Signature: (Ljava/lang/Object;)Lscala/Option;
  Code:
   Stack=7, Locals=10, Args_size=2
	aload_1
	instanceof	class java/lang/CharSequence
	ifeq	l1 // aload_1
	aload_1
	checkcast	class java/lang/CharSequence
	astore_2
	aload_0
	invokevirtual	Method pattern:()Ljava/util/regex/Pattern;
	aload_2
	invokevirtual	Method java/util/regex/Pattern.matcher:(Ljava/lang/CharSequence;)Ljava/util/regex/Matcher;
	astore	5
	aload	5
	invokevirtual	Method java/util/regex/Matcher.matches:()Z
	ifeq	l2 // getstatic
	new	class scala/Some
	dup
	aload	5
	invokevirtual	Method java/util/regex/Matcher.groupCount:()I
	istore	4
	iconst_1
	istore_3
	new	class scala/collection/immutable/Range$$anon$1
	dup
	iload_3
	iload	4
	invokespecial	Method scala/collection/immutable/Range$$anon$1."<init>":(II)V
	invokeinterface	InterfaceMethod scala/collection/TraversableLike.toList:()Lscala/collection/immutable/List;
	new	class scala/util/matching/Regex$$anonfun$unapplySeq$1
	dup
	aload_0
	aload	5
	invokespecial	Method scala/util/matching/Regex$$anonfun$unapplySeq$1."<init>":(Lscala/util/matching/Regex;Ljava/util/regex/Matcher;)V
	getstatic	Field scala/collection/immutable/List$.MODULE$:Lscala/collection/immutable/List$;
	astore	6
	new	class scala/collection/generic/TraversableFactory$GenericCanBuildFrom
	dup
	aload	6
	invokespecial	Method scala/collection/generic/TraversableFactory$GenericCanBuildFrom."<init>":(Lscala/collection/generic/TraversableFactory;)V
	invokeinterface	InterfaceMethod scala/collection/TraversableLike.map:(Lscala/Function1;Lscala/collection/generic/CanBuildFrom;)Ljava/lang/Object;
	invokespecial	Method scala/Some."<init>":(Ljava/lang/Object;)V
	goto	l3 // areturn
l2	getstatic	Field scala/None$.MODULE$:Lscala/None$;
	goto	l3 // areturn
l1	aload_1
	instanceof	class scala/util/matching/Regex$Match
	ifeq	l4 // getstatic
	aload_1
	checkcast	class scala/util/matching/Regex$Match
	astore	7
	new	class scala/Some
	dup
	aload	7
	invokeinterface	InterfaceMethod scala/util/matching/Regex$MatchData.matched:()Ljava/lang/String;
	invokespecial	Method scala/Some."<init>":(Ljava/lang/Object;)V
	astore	8
	iconst_1
	ifeq	l4 // getstatic
	aload	8
	getfield	Field scala/Some.x:Ljava/lang/Object;
	checkcast	class java/lang/String
	astore	9
	aload_0
	aload	9
	invokevirtual	Method unapplySeq:(Ljava/lang/Object;)Lscala/Option;
	goto	l3 // areturn
l4	getstatic	Field scala/None$.MODULE$:Lscala/None$;
l3	areturn
  Labels:
   	l2 = 93 // getstatic
   	l1 = 99 // aload_1
   	l4 = 151 // getstatic
   	l3 = 154 // areturn
  LocalVariableTable: 
   Start  Length  Slot  Name   Signature
   0      155      0    this       Lscala/util/matching/Regex;
   0      155      1    target       Ljava/lang/Object;
   12      87      2    temp2       Ljava/lang/CharSequence;
   22      77      5    m$1       Ljava/util/regex/Matcher;
   112      42      7    temp3       Lscala/util/matching/Regex$Match;
   128      26      8    temp4       Lscala/Some;
   142      6      9    temp5       Ljava/lang/String;

  Signature: length = 0x2
   00 75 

public scala.util.matching.Regex$MatchIterator findAllIn(java.lang.CharSequence);
  Signature: (Ljava/lang/CharSequence;)Lscala/util/matching/Regex$MatchIterator;
  Code:
   Stack=5, Locals=2, Args_size=2
	new	class scala/util/matching/Regex$MatchIterator
	dup
	aload_1
	aload_0
	aload_0
	getfield	Field scala$util$matching$Regex$$groupNames:Lscala/collection/Seq;
	invokespecial	Method scala/util/matching/Regex$MatchIterator."<init>":(Ljava/lang/CharSequence;Lscala/util/matching/Regex;Lscala/collection/Seq;)V
	areturn
  Labels:
  LocalVariableTable: 
   Start  Length  Slot  Name   Signature
   0      14      0    this       Lscala/util/matching/Regex;
   0      14      1    source       Ljava/lang/CharSequence;


public scala.Option findFirstIn(java.lang.CharSequence);
  Signature: (Ljava/lang/CharSequence;)Lscala/Option;
  Code:
   Stack=3, Locals=3, Args_size=2
	aload_0
	invokevirtual	Method pattern:()Ljava/util/regex/Pattern;
	aload_1
	invokevirtual	Method java/util/regex/Pattern.matcher:(Ljava/lang/CharSequence;)Ljava/util/regex/Matcher;
	astore_2
	aload_2
	invokevirtual	Method java/util/regex/Matcher.find:()Z
	ifeq	l1 // getstatic
	new	class scala/Some
	dup
	aload_2
	invokevirtual	Method java/util/regex/Matcher.group:()Ljava/lang/String;
	invokespecial	Method scala/Some."<init>":(Ljava/lang/Object;)V
	goto	l2 // areturn
l1	getstatic	Field scala/None$.MODULE$:Lscala/None$;
l2	areturn
  Labels:
   	l1 = 30 // getstatic
   	l2 = 33 // areturn
  LocalVariableTable: 
   Start  Length  Slot  Name   Signature
   0      34      0    this       Lscala/util/matching/Regex;
   0      34      1    source       Ljava/lang/CharSequence;
   9      25      2    m       Ljava/util/regex/Matcher;

  Signature: length = 0x2
   00 FFFFFF8A 

public scala.Option findFirstMatchIn(java.lang.CharSequence);
  Signature: (Ljava/lang/CharSequence;)Lscala/Option;
  Code:
   Stack=7, Locals=3, Args_size=2
	aload_0
	invokevirtual	Method pattern:()Ljava/util/regex/Pattern;
	aload_1
	invokevirtual	Method java/util/regex/Pattern.matcher:(Ljava/lang/CharSequence;)Ljava/util/regex/Matcher;
	astore_2
	aload_2
	invokevirtual	Method java/util/regex/Matcher.find:()Z
	ifeq	l1 // getstatic
	new	class scala/Some
	dup
	new	class scala/util/matching/Regex$Match
	dup
	aload_1
	aload_2
	aload_0
	getfield	Field scala$util$matching$Regex$$groupNames:Lscala/collection/Seq;
	invokespecial	Method scala/util/matching/Regex$Match."<init>":(Ljava/lang/CharSequence;Ljava/util/regex/Matcher;Lscala/collection/Seq;)V
	invokespecial	Method scala/Some."<init>":(Ljava/lang/Object;)V
	goto	l2 // areturn
l1	getstatic	Field scala/None$.MODULE$:Lscala/None$;
l2	areturn
  Labels:
   	l1 = 39 // getstatic
   	l2 = 42 // areturn
  LocalVariableTable: 
   Start  Length  Slot  Name   Signature
   0      43      0    this       Lscala/util/matching/Regex;
   0      43      1    source       Ljava/lang/CharSequence;
   9      34      2    m       Ljava/util/regex/Matcher;

  Signature: length = 0x2
   00 FFFFFF8F 

public scala.Option findPrefixOf(java.lang.CharSequence);
  Signature: (Ljava/lang/CharSequence;)Lscala/Option;
  Code:
   Stack=3, Locals=3, Args_size=2
	aload_0
	invokevirtual	Method pattern:()Ljava/util/regex/Pattern;
	aload_1
	invokevirtual	Method java/util/regex/Pattern.matcher:(Ljava/lang/CharSequence;)Ljava/util/regex/Matcher;
	astore_2
	aload_2
	invokevirtual	Method java/util/regex/Matcher.lookingAt:()Z
	ifeq	l1 // getstatic
	new	class scala/Some
	dup
	aload_2
	invokevirtual	Method java/util/regex/Matcher.group:()Ljava/lang/String;
	invokespecial	Method scala/Some."<init>":(Ljava/lang/Object;)V
	goto	l2 // areturn
l1	getstatic	Field scala/None$.MODULE$:Lscala/None$;
l2	areturn
  Labels:
   	l1 = 30 // getstatic
   	l2 = 33 // areturn
  LocalVariableTable: 
   Start  Length  Slot  Name   Signature
   0      34      0    this       Lscala/util/matching/Regex;
   0      34      1    source       Ljava/lang/CharSequence;
   9      25      2    m       Ljava/util/regex/Matcher;

  Signature: length = 0x2
   00 FFFFFF8A 

public scala.Option findPrefixMatchOf(java.lang.CharSequence);
  Signature: (Ljava/lang/CharSequence;)Lscala/Option;
  Code:
   Stack=7, Locals=3, Args_size=2
	aload_0
	invokevirtual	Method pattern:()Ljava/util/regex/Pattern;
	aload_1
	invokevirtual	Method java/util/regex/Pattern.matcher:(Ljava/lang/CharSequence;)Ljava/util/regex/Matcher;
	astore_2
	aload_2
	invokevirtual	Method java/util/regex/Matcher.lookingAt:()Z
	ifeq	l1 // getstatic
	new	class scala/Some
	dup
	new	class scala/util/matching/Regex$Match
	dup
	aload_1
	aload_2
	aload_0
	getfield	Field scala$util$matching$Regex$$groupNames:Lscala/collection/Seq;
	invokespecial	Method scala/util/matching/Regex$Match."<init>":(Ljava/lang/CharSequence;Ljava/util/regex/Matcher;Lscala/collection/Seq;)V
	invokespecial	Method scala/Some."<init>":(Ljava/lang/Object;)V
	goto	l2 // areturn
l1	getstatic	Field scala/None$.MODULE$:Lscala/None$;
l2	areturn
  Labels:
   	l1 = 39 // getstatic
   	l2 = 42 // areturn
  LocalVariableTable: 
   Start  Length  Slot  Name   Signature
   0      43      0    this       Lscala/util/matching/Regex;
   0      43      1    source       Ljava/lang/CharSequence;
   9      34      2    m       Ljava/util/regex/Matcher;

  Signature: length = 0x2
   00 FFFFFF8F 

public java.lang.String replaceAllIn(java.lang.CharSequence, java.lang.String);
  Signature: (Ljava/lang/CharSequence;Ljava/lang/String;)Ljava/lang/String;
  Code:
   Stack=2, Locals=4, Args_size=3
	aload_0
	invokevirtual	Method pattern:()Ljava/util/regex/Pattern;
	aload_1
	invokevirtual	Method java/util/regex/Pattern.matcher:(Ljava/lang/CharSequence;)Ljava/util/regex/Matcher;
	astore_3
	aload_3
	aload_2
	invokevirtual	Method java/util/regex/Matcher.replaceAll:(Ljava/lang/String;)Ljava/lang/String;
	areturn
  Labels:
  LocalVariableTable: 
   Start  Length  Slot  Name   Signature
   0      15      0    this       Lscala/util/matching/Regex;
   0      15      1    target       Ljava/lang/CharSequence;
   0      15      2    replacement       Ljava/lang/String;
   9      5      3    m       Ljava/util/regex/Matcher;


public java.lang.String replaceAllIn(java.lang.CharSequence, scala.Function1);
  Signature: (Ljava/lang/CharSequence;Lscala/Function1;)Ljava/lang/String;
  Code:
   Stack=4, Locals=5, Args_size=3
	new	class scala/util/matching/Regex$$anon$1
	dup
	aload_0
	aload_1
	invokespecial	Method scala/util/matching/Regex$$anon$1."<init>":(Lscala/util/matching/Regex;Ljava/lang/CharSequence;)V
	astore_3
l2	aload_3
	invokevirtual	Method scala/util/matching/Regex$MatchIterator.hasNext:()Z
	ifeq	l1 // aload_3
	aload_3
	invokevirtual	Method scala/util/matching/Regex$MatchIterator.next:()Ljava/lang/String;
	astore	4
	aload_3
	checkcast	class scala/util/matching/Regex$Replacement
	aload_2
	aload	4
	invokeinterface	InterfaceMethod scala/Function1.apply:(Ljava/lang/Object;)Ljava/lang/Object;
	checkcast	class java/lang/String
	invokeinterface	InterfaceMethod scala/util/matching/Regex$Replacement.replace:(Ljava/lang/String;)Ljava/util/regex/Matcher;
	pop
	goto	l2 // aload_3
l1	aload_3
	checkcast	class scala/util/matching/Regex$Replacement
	invokeinterface	InterfaceMethod scala/util/matching/Regex$Replacement.replaced:()Ljava/lang/String;
	areturn
  Labels:
   	l2 = 10 // aload_3
   	l1 = 47 // aload_3
  LocalVariableTable: 
   Start  Length  Slot  Name   Signature
   0      57      0    this       Lscala/util/matching/Regex;
   0      57      1    target$1       Ljava/lang/CharSequence;
   0      57      2    replacer       Lscala/Function1;
   10      46      3    it       Lscala/util/matching/Regex$MatchIterator;
   23      21      4    matchedString       Ljava/lang/String;

  Signature: length = 0x2
   00 FFFFFFBD 

public java.lang.String replaceAllMatchesIn(java.lang.CharSequence, scala.Function1);
  Signature: (Ljava/lang/CharSequence;Lscala/Function1;)Ljava/lang/String;
  Code:
   Stack=5, Locals=5, Args_size=3
	new	class scala/util/matching/Regex$MatchIterator
	dup
	aload_1
	aload_0
	aload_0
	getfield	Field scala$util$matching$Regex$$groupNames:Lscala/collection/Seq;
	invokespecial	Method scala/util/matching/Regex$MatchIterator."<init>":(Ljava/lang/CharSequence;Lscala/util/matching/Regex;Lscala/collection/Seq;)V
	invokevirtual	Method scala/util/matching/Regex$MatchIterator.replacementData:()Lscala/collection/Iterator;
	astore_3
l2	aload_3
	invokeinterface	InterfaceMethod scala/collection/Iterator.hasNext:()Z
	ifeq	l1 // aload_3
	aload_3
	invokeinterface	InterfaceMethod scala/collection/Iterator.next:()Ljava/lang/Object;
	checkcast	class scala/util/matching/Regex$Match
	astore	4
	aload_3
	checkcast	class scala/util/matching/Regex$Replacement
	aload_2
	aload	4
	invokeinterface	InterfaceMethod scala/Function1.apply:(Ljava/lang/Object;)Ljava/lang/Object;
	checkcast	class java/lang/String
	invokeinterface	InterfaceMethod scala/util/matching/Regex$Replacement.replace:(Ljava/lang/String;)Ljava/util/regex/Matcher;
	pop
	goto	l2 // aload_3
l1	aload_3
	checkcast	class scala/util/matching/Regex$Replacement
	invokeinterface	InterfaceMethod scala/util/matching/Regex$Replacement.replaced:()Ljava/lang/String;
	areturn
  Labels:
   	l2 = 17 // aload_3
   	l1 = 61 // aload_3
  LocalVariableTable: 
   Start  Length  Slot  Name   Signature
   0      71      0    this       Lscala/util/matching/Regex;
   0      71      1    target       Ljava/lang/CharSequence;
   0      71      2    replacer       Lscala/Function1;
   17      53      3    it       Lscala/collection/Iterator;
   37      21      4    matchdata       Lscala/util/matching/Regex$Match;

  Signature: length = 0x2
   00 FFFFFFCB 

public java.lang.String replaceFirstIn(java.lang.CharSequence, java.lang.String);
  Signature: (Ljava/lang/CharSequence;Ljava/lang/String;)Ljava/lang/String;
  Code:
   Stack=2, Locals=4, Args_size=3
	aload_0
	invokevirtual	Method pattern:()Ljava/util/regex/Pattern;
	aload_1
	invokevirtual	Method java/util/regex/Pattern.matcher:(Ljava/lang/CharSequence;)Ljava/util/regex/Matcher;
	astore_3
	aload_3
	aload_2
	invokevirtual	Method java/util/regex/Matcher.replaceFirst:(Ljava/lang/String;)Ljava/lang/String;
	areturn
  Labels:
  LocalVariableTable: 
   Start  Length  Slot  Name   Signature
   0      15      0    this       Lscala/util/matching/Regex;
   0      15      1    target       Ljava/lang/CharSequence;
   0      15      2    replacement       Ljava/lang/String;
   9      5      3    m       Ljava/util/regex/Matcher;


public java.lang.String[] split(java.lang.CharSequence);
  Signature: (Ljava/lang/CharSequence;)[Ljava/lang/String;
  Code:
   Stack=2, Locals=2, Args_size=2
	aload_0
	invokevirtual	Method pattern:()Ljava/util/regex/Pattern;
	aload_1
	invokevirtual	Method java/util/regex/Pattern.split:(Ljava/lang/CharSequence;)[Ljava/lang/String;
	areturn
  Labels:
  LocalVariableTable: 
   Start  Length  Slot  Name   Signature
   0      9      0    this       Lscala/util/matching/Regex;
   0      9      1    toSplit       Ljava/lang/CharSequence;


public java.lang.String toString();
  Signature: ()Ljava/lang/String;
  Code:
   Stack=1, Locals=1, Args_size=1
	aload_0
	getfield	Field regex:Ljava/lang/String;
	areturn
  Labels:

public scala.util.matching.Regex(java.lang.String, scala.collection.Seq);
  Signature: (Ljava/lang/String;Lscala/collection/Seq;)V
  Code:
   Stack=2, Locals=3, Args_size=3
	aload_0
	aload_1
	putfield	Field regex:Ljava/lang/String;
	aload_0
	aload_2
	putfield	Field scala$util$matching$Regex$$groupNames:Lscala/collection/Seq;
	aload_0
	invokespecial	Method java/lang/Object."<init>":()V
	aload_0
	aload_1
	invokestatic	Method java/util/regex/Pattern.compile:(Ljava/lang/String;)Ljava/util/regex/Pattern;
	putfield	Field pattern:Ljava/util/regex/Pattern;
	return
  Labels:
  LocalVariableTable: 
   Start  Length  Slot  Name   Signature
   0      23      0    this       Lscala/util/matching/Regex;
   0      23      1    regex       Ljava/lang/String;
   0      23      2    groupNames       Lscala/collection/Seq;

  Signature: length = 0x2
   00 FFFFFFE2 

}

