Compiled from "Regex.scala"
public class scala.util.matching.Regex extends java.lang.Object implements scala.ScalaObject,java.io.Serializable
  SourceFile: "Regex.scala"
  ScalaSig: length = 0x9C4
   05 00 FFFFFF82 4C 06 08 01 02 FFFFFF84 FFFFFF80 FFFFFF80 FFFFFF80 00 09 02 05
   52 65 67 65 78 0A 02 03 04 01 08 6D 61 74 63 68
   69 6E 67 0A 02 05 06 01 04 75 74 69 6C 0A 01 07
   01 05 73 63 61 6C 61 03 00 13 03 00 0A 12 10 02
   0B 10 0D 01 0C 0A 02 0D 0E 01 04 6C 61 6E 67 0A
   01 0F 01 04 6A 61 76 61 09 02 11 0C 02 06 4F 62
   6A 65 63 74 10 02 13 14 0D 01 06 09 02 15 06 02
   0B 53 63 61 6C 61 4F 62 6A 65 63 74 08 08 17 00
   FFFFFF82 FFFFFF80 FFFFFFA0 FFFFFF80 04 18 01 05 72 65 67 65 78 10 02 19
   1C 0E 02 13 1A 09 02 1B 06 01 06 50 72 65 64 65
   66 09 02 1D 1E 02 06 53 74 72 69 6E 67 0A 02 1B
   06 08 08 20 00 FFFFFF82 FFFFFF80 FFFFFFA0 FFFFFF80 04 21 01 0A 67 72 6F
   75 70 4E 61 6D 65 73 10 03 13 22 18 09 02 23 06
   02 0A 3C 72 65 70 65 61 74 65 64 3E 08 05 25 00
   FFFFFF84 00 26 01 06 3C 69 6E 69 74 3E 14 03 27 29 2A
   10 02 28 00 0D 01 02 08 05 17 24 FFFFFFC0 00 18 08 05
   20 24 FFFFFFC0 00 21 08 07 2C 00 FFFFFFC2 FFFFFF80 FFFFFF84 00 2D 01 07
   70 61 74 74 65 72 6E 15 01 2E 10 02 2F 32 0D 01
   30 0A 02 17 31 0A 02 05 0E 09 02 33 30 02 07 50
   61 74 74 65 72 6E 08 06 35 00 FFFFFFA0 FFFFFF80 04 2E 01 08
   70 61 74 74 65 72 6E 20 08 05 37 00 FFFFFF84 00 38 01
   0A 75 6E 61 70 70 6C 79 53 65 71 14 02 39 44 10
   03 13 3A 3C 09 02 3B 06 02 06 4F 70 74 69 6F 6E
   10 03 3D 42 18 0D 01 3E 0A 02 3F 40 01 09 69 6D
   6D 75 74 61 62 6C 65 0A 02 41 06 01 0A 63 6F 6C
   6C 65 63 74 69 6F 6E 09 02 43 3E 02 04 4C 69 73
   74 08 05 45 36 FFFFFFC0 00 46 01 06 74 61 72 67 65 74
   10 02 13 47 09 02 48 06 02 03 41 6E 79 08 05 4A
   00 FFFFFF84 00 4B 01 09 66 69 6E 64 41 6C 6C 49 6E 14
   03 4C FFFFFF82 1D 10 03 4D FFFFFF81 60 0E 02 28 4E 07 05 4F
   02 FFFFFF88 02 50 01 05 52 65 67 65 78 10 02 28 51 06
   08 01 02 FFFFFF84 FFFFFF80 FFFFFF80 FFFFFF88 02 52 13 03 51 0A 12 08 05
   25 51 FFFFFF84 00 54 14 01 50 06 08 56 51 FFFFFF84 FFFFFF90 FFFFFF80 FFFFFF81
   00 57 02 09 4D 61 74 63 68 44 61 74 61 13 03 55
   0A 12 08 05 59 55 FFFFFF84 00 5A 01 06 24 69 6E 69 74
   24 14 01 5B 10 02 13 5C 09 02 5D 06 02 04 55 6E
   69 74 08 07 5F 55 FFFFFFC2 FFFFFF80 FFFFFF86 00 60 01 06 73 6F 75
   72 63 65 15 01 61 10 02 0B 62 09 02 63 0C 02 0C
   43 68 61 72 53 65 71 75 65 6E 63 65 08 07 20 55
   FFFFFFC2 FFFFFF80 FFFFFF86 00 65 15 01 66 10 03 67 68 18 0D 01 40
   09 02 69 40 02 03 53 65 71 08 05 6B 55 FFFFFF86 00 6C
   01 0A 67 72 6F 75 70 43 6F 75 6E 74 15 01 6D 10
   02 13 6E 09 02 6F 06 02 03 49 6E 74 08 05 71 55
   FFFFFF86 00 6C 01 05 73 74 61 72 74 08 05 71 55 FFFFFF86 00
   73 14 02 6D 74 08 05 75 72 FFFFFFC0 00 6D 01 01 69 08
   05 77 55 FFFFFF86 00 6C 01 03 65 6E 64 08 05 77 55 FFFFFF86
   00 79 14 02 6D 7A 08 05 75 78 FFFFFFC0 00 6D 08 05 7C
   55 FFFFFF84 00 7D 01 07 6D 61 74 63 68 65 64 15 01 18
   08 06 7F 55 FFFFFF84 00 FFFFFF81 00 01 05 67 72 6F 75 70 14
   03 18 FFFFFF81 01 08 05 75 7E FFFFFFC0 00 6D 08 07 FFFFFF81 03 55
   FFFFFF84 00 FFFFFF81 04 01 09 73 75 62 67 72 6F 75 70 73 15
   01 3C 08 06 FFFFFF81 06 55 FFFFFF84 00 60 01 06 62 65 66 6F
   72 65 08 07 FFFFFF81 06 55 FFFFFF84 00 FFFFFF81 08 14 03 61 FFFFFF81 09
   08 06 75 FFFFFF81 07 FFFFFFC0 00 6D 08 06 FFFFFF81 0B 55 FFFFFF84 00 60
   01 05 61 66 74 65 72 08 07 FFFFFF81 0B 55 FFFFFF84 00 FFFFFF81 0D
   14 03 61 FFFFFF81 0E 08 06 75 FFFFFF81 0C FFFFFFC0 00 6D 08 0A FFFFFF81
   10 55 FFFFFF88 FFFFFFC2 FFFFFF80 FFFFFF84 04 FFFFFF81 11 01 0B 6E 61 6D 65 54
   6F 49 6E 64 65 78 15 02 FFFFFF81 12 10 05 19 FFFFFF81 13 18
   6D 09 03 FFFFFF81 14 1E 02 03 4D 61 70 08 0A FFFFFF81 16 55
   FFFFFF88 FFFFFF80 FFFFFFA0 FFFFFFA0 04 FFFFFF81 12 01 0C 6E 61 6D 65 54 6F 49
   6E 64 65 78 20 08 06 7F 55 FFFFFF84 00 FFFFFF81 18 14 03 18
   FFFFFF81 19 08 07 FFFFFF81 1A FFFFFF81 17 FFFFFFC0 00 18 01 02 69 64 08
   07 FFFFFF81 1C 55 FFFFFF84 20 FFFFFF81 1D 01 08 74 6F 53 74 72 69
   6E 67 14 01 18 06 0A FFFFFF81 1F 51 FFFFFF84 FFFFFF80 FFFFFF80 FFFFFF80 00 FFFFFF81
   20 02 05 4D 61 74 63 68 13 06 FFFFFF81 1E 0A FFFFFF81 21 12
   10 03 FFFFFF81 22 55 0D 01 51 08 09 5F FFFFFF81 1E FFFFFF82 FFFFFFC2 FFFFFF80
   FFFFFF84 00 60 08 0A FFFFFF81 25 FFFFFF81 1E FFFFFF82 FFFFFF80 FFFFFFA0 FFFFFF80 04 61 01
   07 73 6F 75 72 63 65 20 08 0B FFFFFF81 27 FFFFFF81 1E FFFFFF82 FFFFFF80
   FFFFFFA0 FFFFFF80 04 FFFFFF81 28 01 07 6D 61 74 63 68 65 72 10 03
   2F FFFFFF81 29 09 03 FFFFFF81 2A 30 02 07 4D 61 74 63 68 65
   72 08 09 20 FFFFFF81 1E FFFFFF82 FFFFFFC2 FFFFFF80 FFFFFF84 00 65 08 0A FFFFFF81 2D
   FFFFFF81 1E FFFFFF82 FFFFFF80 FFFFFFA0 FFFFFF80 04 66 01 0B 67 72 6F 75 70 4E
   61 6D 65 73 20 08 07 25 FFFFFF81 1E FFFFFF84 00 FFFFFF81 2F 14 08
   FFFFFF81 30 FFFFFF81 31 FFFFFF81 32 FFFFFF81 33 10 04 FFFFFF81 22 FFFFFF81 1E 08 06
   5F FFFFFF81 2E FFFFFFC0 00 61 08 08 FFFFFF81 27 FFFFFF81 2E FFFFFFC0 00 FFFFFF81 28
   08 06 20 FFFFFF81 2E FFFFFFC0 00 66 08 08 71 FFFFFF81 1E FFFFFFC2 FFFFFF80 FFFFFF84
   00 6C 08 08 FFFFFF81 36 FFFFFF81 1E FFFFFFA0 FFFFFF80 04 6D 01 06 73 74
   61 72 74 20 08 08 77 FFFFFF81 1E FFFFFFC2 FFFFFF80 FFFFFF84 00 6C 08 08
   FFFFFF81 39 FFFFFF81 1E FFFFFFA0 FFFFFF80 04 6D 01 04 65 6E 64 20 08 06
   6B FFFFFF81 1E FFFFFF84 00 6C 08 0B FFFFFF81 3C FFFFFF81 1E FFFFFF88 FFFFFFC2 FFFFFF80 FFFFFF84
   04 FFFFFF81 3D 01 06 73 74 61 72 74 73 15 02 FFFFFF81 3E 10
   04 13 FFFFFF81 3F 6D 09 03 FFFFFF81 40 06 02 05 41 72 72 61
   79 08 0B FFFFFF81 42 FFFFFF81 1E FFFFFF88 FFFFFF80 FFFFFFA0 FFFFFFA0 04 FFFFFF81 3E 01 07
   73 74 61 72 74 73 20 08 0B FFFFFF81 44 FFFFFF81 1E FFFFFF88 FFFFFFC2 FFFFFF80
   FFFFFF84 04 FFFFFF81 3D 01 04 65 6E 64 73 08 0B FFFFFF81 46 FFFFFF81 1E
   FFFFFF88 FFFFFF80 FFFFFFA0 FFFFFFA0 04 FFFFFF81 3E 01 05 65 6E 64 73 20 08 07
   71 FFFFFF81 1E FFFFFF84 00 FFFFFF81 48 14 03 6D FFFFFF81 49 08 06 75 FFFFFF81
   47 FFFFFFC0 00 6D 08 07 77 FFFFFF81 1E FFFFFF84 00 FFFFFF81 4B 14 03 6D
   FFFFFF81 4C 08 06 75 FFFFFF81 4A FFFFFFC0 00 6D 08 08 FFFFFF81 4E FFFFFF81 1E
   FFFFFF84 00 FFFFFF81 4F 01 05 66 6F 72 63 65 15 02 FFFFFF81 50 0D
   02 FFFFFF81 1E 07 07 FFFFFF81 52 51 FFFFFF88 02 FFFFFF81 53 01 05 4D 61
   74 63 68 10 04 FFFFFF81 22 FFFFFF81 54 06 0A FFFFFF81 1F 51 FFFFFF84 FFFFFF80
   FFFFFF80 FFFFFF88 02 FFFFFF81 55 13 04 FFFFFF81 54 0A 12 08 07 25 FFFFFF81 54
   FFFFFF84 00 FFFFFF81 57 14 02 FFFFFF81 53 08 08 FFFFFF81 59 FFFFFF81 54 FFFFFF84 00
   FFFFFF81 5A 01 07 75 6E 61 70 70 6C 79 14 04 FFFFFF81 5B FFFFFF81
   5E 10 04 13 FFFFFF81 5C 18 09 03 FFFFFF81 5D 06 02 04 53 6F
   6D 65 08 08 FFFFFF81 5F FFFFFF81 58 FFFFFFC0 00 FFFFFF81 30 01 01 6D 06
   0A FFFFFF81 61 51 FFFFFF84 FFFFFF80 FFFFFF80 FFFFFF80 00 FFFFFF81 62 02 0D 4D 61 74
   63 68 49 74 65 72 61 74 6F 72 13 08 FFFFFF81 60 0A FFFFFF81
   63 FFFFFF81 21 12 10 04 67 FFFFFF81 64 18 09 03 FFFFFF81 65 40 02
   08 49 74 65 72 61 74 6F 72 08 09 5F FFFFFF81 60 FFFFFF82 FFFFFFC2
   FFFFFF80 FFFFFF84 00 60 08 0A FFFFFF81 25 FFFFFF81 60 FFFFFF82 FFFFFF80 FFFFFFA0 FFFFFF80 04 61
   08 0A 17 FFFFFF81 60 FFFFFF82 FFFFFFC2 FFFFFF80 FFFFFF84 00 FFFFFF81 69 15 01 27 08
   0A FFFFFF81 6B FFFFFF81 60 FFFFFF82 FFFFFF80 FFFFFFA0 FFFFFF80 04 27 01 06 72 65 67
   65 78 20 08 09 20 FFFFFF81 60 FFFFFF82 FFFFFFC2 FFFFFF80 FFFFFF84 00 65 08 0A
   FFFFFF81 2D FFFFFF81 60 FFFFFF82 FFFFFF80 FFFFFFA0 FFFFFF80 04 66 08 07 25 FFFFFF81 60 FFFFFF84
   00 FFFFFF81 6F 14 08 FFFFFF81 70 FFFFFF81 71 FFFFFF81 72 FFFFFF81 73 10 04 FFFFFF81
   22 FFFFFF81 60 08 06 5F FFFFFF81 6E FFFFFFC0 00 61 08 06 17 FFFFFF81 6E
   FFFFFFC0 00 27 08 06 20 FFFFFF81 6E FFFFFFC0 00 66 08 0A FFFFFF81 27 FFFFFF81
   60 FFFFFFC2 FFFFFF80 FFFFFF84 04 FFFFFF81 75 15 02 FFFFFF81 28 08 09 FFFFFF81 77 FFFFFF81
   60 FFFFFFA0 FFFFFF80 04 FFFFFF81 28 01 08 6D 61 74 63 68 65 72 20
   08 0A FFFFFF81 79 FFFFFF81 60 FFFFFFC0 FFFFFF80 FFFFFF84 04 FFFFFF81 7A 01 08 6E 65
   78 74 53 65 65 6E 15 02 FFFFFF81 7B 10 03 13 FFFFFF81 7C 09
   03 FFFFFF81 7D 06 02 07 42 6F 6F 6C 65 61 6E 08 0A FFFFFF81
   7F FFFFFF81 60 FFFFFFC0 FFFFFF80 FFFFFF84 04 FFFFFF82 00 01 0C 6E 65 78 74 53
   65 65 6E 5F 24 65 71 14 03 5B FFFFFF82 01 08 0A FFFFFF82 02
   FFFFFF81 7E FFFFFF81 FFFFFF80 FFFFFFC0 00 FFFFFF81 7B 01 03 78 24 31 08 09 FFFFFF82
   04 FFFFFF81 60 FFFFFFA0 FFFFFFA0 04 FFFFFF81 7B 01 09 6E 65 78 74 53 65
   65 6E 20 08 08 FFFFFF82 06 FFFFFF81 60 FFFFFF84 00 FFFFFF81 7A 01 07 68
   61 73 4E 65 78 74 08 08 FFFFFF82 08 FFFFFF81 60 FFFFFF84 00 FFFFFF81 1D
   01 04 6E 65 78 74 08 08 FFFFFF81 1C FFFFFF81 60 FFFFFF84 20 FFFFFF82 0A
   14 02 FFFFFF82 0B 10 03 0B FFFFFF82 0C 09 02 1D 0C 08 06 71
   FFFFFF81 60 FFFFFF84 00 6C 08 07 71 FFFFFF81 60 FFFFFF84 00 FFFFFF82 0F 14 03
   6D FFFFFF82 10 08 06 75 FFFFFF82 0E FFFFFFC0 00 6D 08 06 77 FFFFFF81 60
   FFFFFF84 00 6C 08 07 77 FFFFFF81 60 FFFFFF84 00 FFFFFF82 13 14 03 6D FFFFFF82
   14 08 06 75 FFFFFF82 12 FFFFFFC0 00 6D 08 06 6B FFFFFF81 60 FFFFFF84 00
   6C 08 08 FFFFFF82 17 FFFFFF81 60 FFFFFF84 00 FFFFFF82 18 01 09 6D 61 74
   63 68 44 61 74 61 15 02 FFFFFF82 19 12 05 FFFFFF82 1A 0A FFFFFF82
   1C 06 0B FFFFFF82 1B FFFFFF82 16 FFFFFF84 FFFFFF80 FFFFFF80 FFFFFF80 00 FFFFFF82 19 02 0C
   3C 72 65 66 69 6E 65 6D 65 6E 74 3E 10 05 67 FFFFFF81
   64 FFFFFF81 30 08 05 5F 49 FFFFFFC0 00 61 08 07 FFFFFF82 1F 00 FFFFFF84
   00 FFFFFF82 20 01 0B 66 69 6E 64 46 69 72 73 74 49 6E
   14 04 FFFFFF82 21 FFFFFF82 22 10 03 13 3A 18 08 06 5F FFFFFF82 1E
   FFFFFFC0 00 61 08 07 FFFFFF82 24 00 FFFFFF84 00 FFFFFF82 25 01 10 66 69
   6E 64 46 69 72 73 74 4D 61 74 63 68 49 6E 14 04
   FFFFFF82 26 FFFFFF82 28 10 04 13 3A FFFFFF82 27 10 03 4D FFFFFF81 1E 08
   06 5F FFFFFF82 23 FFFFFFC0 00 61 08 07 FFFFFF82 2A 00 FFFFFF84 00 FFFFFF82 2B
   01 0C 66 69 6E 64 50 72 65 66 69 78 4F 66 14 04
   FFFFFF82 21 FFFFFF82 2C 08 06 5F FFFFFF82 29 FFFFFFC0 00 61 08 07 FFFFFF82 2E
   00 FFFFFF84 00 FFFFFF82 2F 01 11 66 69 6E 64 50 72 65 66 69
   78 4D 61 74 63 68 4F 66 14 04 FFFFFF82 26 FFFFFF82 30 08 06
   5F FFFFFF82 2D FFFFFFC0 00 61 08 07 FFFFFF82 32 00 FFFFFF84 00 FFFFFF82 33 01
   0C 72 65 70 6C 61 63 65 41 6C 6C 49 6E 14 05 18
   FFFFFF82 34 FFFFFF82 35 08 06 45 FFFFFF82 31 FFFFFFC0 00 61 08 07 FFFFFF82 36
   FFFFFF82 31 FFFFFFC0 00 18 01 0B 72 65 70 6C 61 63 65 6D 65
   6E 74 08 07 FFFFFF82 38 00 FFFFFF84 00 FFFFFF82 39 01 0E 72 65 70
   6C 61 63 65 46 69 72 73 74 49 6E 14 05 18 FFFFFF82 3A
   FFFFFF82 3B 08 06 45 FFFFFF82 37 FFFFFFC0 00 61 08 07 FFFFFF82 36 FFFFFF82 37
   FFFFFFC0 00 18 08 07 FFFFFF82 3D 00 FFFFFF84 00 FFFFFF82 3E 01 05 73 70
   6C 69 74 14 04 FFFFFF82 3F FFFFFF82 40 10 04 13 FFFFFF81 3F 18 08
   07 FFFFFF82 41 FFFFFF82 3C FFFFFFC0 00 61 01 07 74 6F 53 70 6C 69
   74 08 07 FFFFFF81 1C 00 FFFFFF84 20 FFFFFF81 1D 28 05 00 FFFFFF82 44 FFFFFF82
   47 10 03 13 FFFFFF82 45 09 03 FFFFFF82 46 06 02 10 53 65 72
   69 61 6C 56 65 72 73 69 6F 6E 55 49 44 1E 08 FFFFFFE2
   FFFFFFED FFFFFFD5 6A FFFFFF9E FFFFFFF0 21 FFFFFFBF 28 03 00 FFFFFF82 49 10 03 13 FFFFFF82
   4A 09 03 FFFFFF82 4B 06 02 0C 73 65 72 69 61 6C 69 7A
   61 62 6C 65 
  InnerClass: 
   public Match=class scala/util/matching/Regex$Match of class scala/util/matching/Regex
   public final $anon$1=class scala/collection/immutable/Range$$anon$1 of class scala/collection/immutable/Range
   public abstract MatchData=class scala/util/matching/Regex$MatchData of class scala/util/matching/Regex
   public Inclusive=class scala/collection/immutable/Range$Inclusive of class scala/collection/immutable/Range
   public MatchIterator=class scala/util/matching/Regex$MatchIterator of class scala/util/matching/Regex
   public abstract MatchData$class=class scala/util/matching/Regex$MatchData$class of class scala/util/matching/Regex
   public final $anonfun$unapplySeq$1=class scala/util/matching/Regex$$anonfun$unapplySeq$1 of class scala/util/matching/Regex
   public GenericCanBuildFrom=class scala/collection/generic/TraversableFactory$GenericCanBuildFrom of class scala/collection/generic/TraversableFactory
  minor version: 0
  major version: 49
  Constant pool:
Asciz	SourceFile;
Asciz	Regex.scala;
Asciz	<clinit>;
Asciz	()V;
Asciz	Code;
Asciz	serialVersionUID;
Asciz	J;
long	-2094783597747625537l;
Asciz	scala/util/matching/Regex;
class	scala/util/matching/Regex
NameAndType	serialVersionUID:J
Field	scala/util/matching/Regex.serialVersionUID:J
Asciz	pattern;
Asciz	Ljava/util/regex/Pattern;;
Asciz	groupNames;
Asciz	Lscala/collection/Seq;;
Asciz	Lscala/collection/Seq<Ljava/lang/String;>;;
Asciz	Signature;
Asciz	regex;
Asciz	Ljava/lang/String;;
Asciz	<init>;
Asciz	(Ljava/lang/String;Lscala/collection/Seq;)V;
Asciz	LineNumberTable;
NameAndType	regex:Ljava/lang/String;
Field	scala/util/matching/Regex.regex:Ljava/lang/String;
NameAndType	groupNames:Lscala/collection/Seq;
Field	scala/util/matching/Regex.groupNames:Lscala/collection/Seq;
Asciz	java/lang/Object;
class	java/lang/Object
NameAndType	"<init>":()V
Method	java/lang/Object."<init>":()V
Asciz	java/util/regex/Pattern;
class	java/util/regex/Pattern
Asciz	compile;
Asciz	(Ljava/lang/String;)Ljava/util/regex/Pattern;;
NameAndType	compile:(Ljava/lang/String;)Ljava/util/regex/Pattern;
Method	java/util/regex/Pattern.compile:(Ljava/lang/String;)Ljava/util/regex/Pattern;
NameAndType	pattern:Ljava/util/regex/Pattern;
Field	scala/util/matching/Regex.pattern:Ljava/util/regex/Pattern;
Asciz	this;
Asciz	Lscala/util/matching/Regex;;
Asciz	LocalVariableTable;
Asciz	(Ljava/lang/String;Lscala/collection/Seq<Ljava/lang/String;>;)V;
Asciz	toString;
Asciz	()Ljava/lang/String;;
Asciz	split;
Asciz	(Ljava/lang/CharSequence;)[Ljava/lang/String;;
Asciz	()Ljava/util/regex/Pattern;;
NameAndType	pattern:()Ljava/util/regex/Pattern;
Method	scala/util/matching/Regex.pattern:()Ljava/util/regex/Pattern;
NameAndType	split:(Ljava/lang/CharSequence;)[Ljava/lang/String;
Method	java/util/regex/Pattern.split:(Ljava/lang/CharSequence;)[Ljava/lang/String;
Asciz	toSplit;
Asciz	Ljava/lang/CharSequence;;
Asciz	replaceFirstIn;
Asciz	(Ljava/lang/CharSequence;Ljava/lang/String;)Ljava/lang/String;;
Asciz	matcher;
Asciz	(Ljava/lang/CharSequence;)Ljava/util/regex/Matcher;;
NameAndType	matcher:(Ljava/lang/CharSequence;)Ljava/util/regex/Matcher;
Method	java/util/regex/Pattern.matcher:(Ljava/lang/CharSequence;)Ljava/util/regex/Matcher;
Asciz	java/util/regex/Matcher;
class	java/util/regex/Matcher
Asciz	replaceFirst;
Asciz	(Ljava/lang/String;)Ljava/lang/String;;
NameAndType	replaceFirst:(Ljava/lang/String;)Ljava/lang/String;
Method	java/util/regex/Matcher.replaceFirst:(Ljava/lang/String;)Ljava/lang/String;
Asciz	target;
Asciz	replacement;
Asciz	m;
Asciz	Ljava/util/regex/Matcher;;
Asciz	replaceAllIn;
Asciz	replaceAll;
NameAndType	replaceAll:(Ljava/lang/String;)Ljava/lang/String;
Method	java/util/regex/Matcher.replaceAll:(Ljava/lang/String;)Ljava/lang/String;
Asciz	findPrefixMatchOf;
Asciz	(Ljava/lang/CharSequence;)Lscala/Option;;
Asciz	lookingAt;
Asciz	()Z;
NameAndType	lookingAt:()Z
Method	java/util/regex/Matcher.lookingAt:()Z
Asciz	scala/Some;
class	scala/Some
Asciz	scala/util/matching/Regex$Match;
class	scala/util/matching/Regex$Match
Asciz	(Ljava/lang/CharSequence;Ljava/util/regex/Matcher;Lscala/collection/Seq;)V;
NameAndType	"<init>":(Ljava/lang/CharSequence;Ljava/util/regex/Matcher;Lscala/collection/Seq;)V
Method	scala/util/matching/Regex$Match."<init>":(Ljava/lang/CharSequence;Ljava/util/regex/Matcher;Lscala/collection/Seq;)V
Asciz	(Ljava/lang/Object;)V;
NameAndType	"<init>":(Ljava/lang/Object;)V
Method	scala/Some."<init>":(Ljava/lang/Object;)V
Asciz	scala/None$;
class	scala/None$
Asciz	MODULE$;
Asciz	Lscala/None$;;
NameAndType	MODULE$:Lscala/None$;
Field	scala/None$.MODULE$:Lscala/None$;
Asciz	source;
Asciz	(Ljava/lang/CharSequence;)Lscala/Option<Lscala/util/matching/Regex$Match;>;;
Asciz	findPrefixOf;
Asciz	group;
NameAndType	group:()Ljava/lang/String;
Method	java/util/regex/Matcher.group:()Ljava/lang/String;
Asciz	(Ljava/lang/CharSequence;)Lscala/Option<Ljava/lang/String;>;;
Asciz	findFirstMatchIn;
Asciz	find;
NameAndType	find:()Z
Method	java/util/regex/Matcher.find:()Z
Asciz	findFirstIn;
Asciz	findAllIn;
Asciz	(Ljava/lang/CharSequence;)Lscala/util/matching/Regex$MatchIterator;;
Asciz	scala/util/matching/Regex$MatchIterator;
class	scala/util/matching/Regex$MatchIterator
Asciz	(Ljava/lang/CharSequence;Lscala/util/matching/Regex;Lscala/collection/Seq;)V;
NameAndType	"<init>":(Ljava/lang/CharSequence;Lscala/util/matching/Regex;Lscala/collection/Seq;)V
Method	scala/util/matching/Regex$MatchIterator."<init>":(Ljava/lang/CharSequence;Lscala/util/matching/Regex;Lscala/collection/Seq;)V
Asciz	unapplySeq;
Asciz	(Ljava/lang/Object;)Lscala/Option;;
Asciz	java/lang/CharSequence;
class	java/lang/CharSequence
Asciz	matches;
NameAndType	matches:()Z
Method	java/util/regex/Matcher.matches:()Z
Asciz	groupCount;
Asciz	()I;
NameAndType	groupCount:()I
Method	java/util/regex/Matcher.groupCount:()I
Asciz	scala/collection/immutable/Range$$anon$1;
class	scala/collection/immutable/Range$$anon$1
Asciz	(II)V;
NameAndType	"<init>":(II)V
Method	scala/collection/immutable/Range$$anon$1."<init>":(II)V
Asciz	scala/collection/TraversableLike;
class	scala/collection/TraversableLike
Asciz	toList;
Asciz	()Lscala/collection/immutable/List;;
NameAndType	toList:()Lscala/collection/immutable/List;
InterfaceMethod	scala/collection/TraversableLike.toList:()Lscala/collection/immutable/List;
Asciz	scala/util/matching/Regex$$anonfun$unapplySeq$1;
class	scala/util/matching/Regex$$anonfun$unapplySeq$1
Asciz	(Lscala/util/matching/Regex;Ljava/util/regex/Matcher;)V;
NameAndType	"<init>":(Lscala/util/matching/Regex;Ljava/util/regex/Matcher;)V
Method	scala/util/matching/Regex$$anonfun$unapplySeq$1."<init>":(Lscala/util/matching/Regex;Ljava/util/regex/Matcher;)V
Asciz	scala/collection/immutable/List$;
class	scala/collection/immutable/List$
Asciz	Lscala/collection/immutable/List$;;
NameAndType	MODULE$:Lscala/collection/immutable/List$;
Field	scala/collection/immutable/List$.MODULE$:Lscala/collection/immutable/List$;
Asciz	scala/collection/generic/TraversableFactory$GenericCanBuildFrom;
class	scala/collection/generic/TraversableFactory$GenericCanBuildFrom
Asciz	(Lscala/collection/generic/TraversableFactory;)V;
NameAndType	"<init>":(Lscala/collection/generic/TraversableFactory;)V
Method	scala/collection/generic/TraversableFactory$GenericCanBuildFrom."<init>":(Lscala/collection/generic/TraversableFactory;)V
Asciz	map;
Asciz	(Lscala/Function1;Lscala/collection/generic/CanBuildFrom;)Ljava/lang/Object;;
NameAndType	map:(Lscala/Function1;Lscala/collection/generic/CanBuildFrom;)Ljava/lang/Object;
InterfaceMethod	scala/collection/TraversableLike.map:(Lscala/Function1;Lscala/collection/generic/CanBuildFrom;)Ljava/lang/Object;
Asciz	scala/MatchError;
class	scala/MatchError
NameAndType	toString:()Ljava/lang/String;
Method	java/lang/Object.toString:()Ljava/lang/String;
Asciz	(Ljava/lang/String;)V;
NameAndType	"<init>":(Ljava/lang/String;)V
Method	scala/MatchError."<init>":(Ljava/lang/String;)V
Asciz	scala/util/matching/Regex$MatchData;
class	scala/util/matching/Regex$MatchData
Asciz	matched;
NameAndType	matched:()Ljava/lang/String;
InterfaceMethod	scala/util/matching/Regex$MatchData.matched:()Ljava/lang/String;
Asciz	x;
Asciz	Ljava/lang/Object;;
NameAndType	x:Ljava/lang/Object;
Field	scala/Some.x:Ljava/lang/Object;
Asciz	java/lang/String;
class	java/lang/String
NameAndType	unapplySeq:(Ljava/lang/Object;)Lscala/Option;
Method	scala/util/matching/Regex.unapplySeq:(Ljava/lang/Object;)Lscala/Option;
Asciz	temp2;
Asciz	m$1;
Asciz	temp3;
Asciz	Lscala/util/matching/Regex$Match;;
Asciz	temp4;
Asciz	Lscala/Some;;
Asciz	temp5;
Asciz	(Ljava/lang/Object;)Lscala/Option<Lscala/collection/immutable/List<Ljava/lang/String;>;>;;
Asciz	ScalaSig;
Asciz	InnerClasses;
Asciz	Match;
Asciz	scala/collection/immutable/Range;
class	scala/collection/immutable/Range
Asciz	$anon$1;
Asciz	MatchData;
Asciz	scala/collection/immutable/Range$Inclusive;
class	scala/collection/immutable/Range$Inclusive
Asciz	Inclusive;
Asciz	MatchIterator;
Asciz	scala/util/matching/Regex$MatchData$class;
class	scala/util/matching/Regex$MatchData$class
Asciz	MatchData$class;
Asciz	$anonfun$unapplySeq$1;
Asciz	scala/collection/generic/TraversableFactory;
class	scala/collection/generic/TraversableFactory
Asciz	GenericCanBuildFrom;
Asciz	scala/ScalaObject;
class	scala/ScalaObject
Asciz	java/io/Serializable;
class	java/io/Serializable

{
public static final long serialVersionUID;
  Signature: J

private final java.util.regex.Pattern pattern;
  Signature: Ljava/util/regex/Pattern;

private final scala.collection.Seq groupNames;
  Signature: Lscala/collection/Seq;
  Signature: length = 0x2
   00 12 

private final java.lang.String regex;
  Signature: Ljava/lang/String;

public static {};
  Signature: ()V
  Code:
   Stack=2, Locals=0, Args_size=0
	ldc2_w	long -2094783597747625537l
	putstatic	Field serialVersionUID:J
	return
  Labels:

public scala.util.matching.Regex(java.lang.String, scala.collection.Seq);
  Signature: (Ljava/lang/String;Lscala/collection/Seq;)V
  Code:
   Stack=2, Locals=3, Args_size=3
	aload_0
	aload_1
	putfield	Field regex:Ljava/lang/String;
	aload_0
	aload_2
	putfield	Field groupNames:Lscala/collection/Seq;
	aload_0
	invokespecial	Method java/lang/Object."<init>":()V
	aload_0
	aload_1
	invokestatic	Method java/util/regex/Pattern.compile:(Ljava/lang/String;)Ljava/util/regex/Pattern;
	putfield	Field pattern:Ljava/util/regex/Pattern;
	return
  Labels:
  LocalVariableTable: 
   Start  Length  Slot  Name   Signature
   0      23      0    this       Lscala/util/matching/Regex;
   0      23      1    regex       Ljava/lang/String;
   0      23      2    groupNames       Lscala/collection/Seq;

  Signature: length = 0x2
   00 2C 

public java.lang.String toString();
  Signature: ()Ljava/lang/String;
  Code:
   Stack=1, Locals=1, Args_size=1
	aload_0
	getfield	Field regex:Ljava/lang/String;
	areturn
  Labels:

public java.lang.String[] split(java.lang.CharSequence);
  Signature: (Ljava/lang/CharSequence;)[Ljava/lang/String;
  Code:
   Stack=2, Locals=2, Args_size=2
	aload_0
	invokevirtual	Method pattern:()Ljava/util/regex/Pattern;
	aload_1
	invokevirtual	Method java/util/regex/Pattern.split:(Ljava/lang/CharSequence;)[Ljava/lang/String;
	areturn
  Labels:
  LocalVariableTable: 
   Start  Length  Slot  Name   Signature
   0      9      0    this       Lscala/util/matching/Regex;
   0      9      1    toSplit       Ljava/lang/CharSequence;


public java.lang.String replaceFirstIn(java.lang.CharSequence, java.lang.String);
  Signature: (Ljava/lang/CharSequence;Ljava/lang/String;)Ljava/lang/String;
  Code:
   Stack=2, Locals=4, Args_size=3
	aload_0
	invokevirtual	Method pattern:()Ljava/util/regex/Pattern;
	aload_1
	invokevirtual	Method java/util/regex/Pattern.matcher:(Ljava/lang/CharSequence;)Ljava/util/regex/Matcher;
	astore_3
	aload_3
	aload_2
	invokevirtual	Method java/util/regex/Matcher.replaceFirst:(Ljava/lang/String;)Ljava/lang/String;
	areturn
  Labels:
  LocalVariableTable: 
   Start  Length  Slot  Name   Signature
   0      15      0    this       Lscala/util/matching/Regex;
   0      15      1    target       Ljava/lang/CharSequence;
   0      15      2    replacement       Ljava/lang/String;
   9      5      3    m       Ljava/util/regex/Matcher;


public java.lang.String replaceAllIn(java.lang.CharSequence, java.lang.String);
  Signature: (Ljava/lang/CharSequence;Ljava/lang/String;)Ljava/lang/String;
  Code:
   Stack=2, Locals=4, Args_size=3
	aload_0
	invokevirtual	Method pattern:()Ljava/util/regex/Pattern;
	aload_1
	invokevirtual	Method java/util/regex/Pattern.matcher:(Ljava/lang/CharSequence;)Ljava/util/regex/Matcher;
	astore_3
	aload_3
	aload_2
	invokevirtual	Method java/util/regex/Matcher.replaceAll:(Ljava/lang/String;)Ljava/lang/String;
	areturn
  Labels:
  LocalVariableTable: 
   Start  Length  Slot  Name   Signature
   0      15      0    this       Lscala/util/matching/Regex;
   0      15      1    target       Ljava/lang/CharSequence;
   0      15      2    replacement       Ljava/lang/String;
   9      5      3    m       Ljava/util/regex/Matcher;


public scala.Option findPrefixMatchOf(java.lang.CharSequence);
  Signature: (Ljava/lang/CharSequence;)Lscala/Option;
  Code:
   Stack=7, Locals=3, Args_size=2
	aload_0
	invokevirtual	Method pattern:()Ljava/util/regex/Pattern;
	aload_1
	invokevirtual	Method java/util/regex/Pattern.matcher:(Ljava/lang/CharSequence;)Ljava/util/regex/Matcher;
	astore_2
	aload_2
	invokevirtual	Method java/util/regex/Matcher.lookingAt:()Z
	ifeq	l1 // getstatic
	new	class scala/Some
	dup
	new	class scala/util/matching/Regex$Match
	dup
	aload_1
	aload_2
	aload_0
	getfield	Field groupNames:Lscala/collection/Seq;
	invokespecial	Method scala/util/matching/Regex$Match."<init>":(Ljava/lang/CharSequence;Ljava/util/regex/Matcher;Lscala/collection/Seq;)V
	invokespecial	Method scala/Some."<init>":(Ljava/lang/Object;)V
	goto	l2 // areturn
l1	getstatic	Field scala/None$.MODULE$:Lscala/None$;
l2	areturn
  Labels:
   	l1 = 39 // getstatic
   	l2 = 42 // areturn
  LocalVariableTable: 
   Start  Length  Slot  Name   Signature
   0      43      0    this       Lscala/util/matching/Regex;
   0      43      1    source       Ljava/lang/CharSequence;
   9      34      2    m       Ljava/util/regex/Matcher;

  Signature: length = 0x2
   00 63 

public scala.Option findPrefixOf(java.lang.CharSequence);
  Signature: (Ljava/lang/CharSequence;)Lscala/Option;
  Code:
   Stack=3, Locals=3, Args_size=2
	aload_0
	invokevirtual	Method pattern:()Ljava/util/regex/Pattern;
	aload_1
	invokevirtual	Method java/util/regex/Pattern.matcher:(Ljava/lang/CharSequence;)Ljava/util/regex/Matcher;
	astore_2
	aload_2
	invokevirtual	Method java/util/regex/Matcher.lookingAt:()Z
	ifeq	l1 // getstatic
	new	class scala/Some
	dup
	aload_2
	invokevirtual	Method java/util/regex/Matcher.group:()Ljava/lang/String;
	invokespecial	Method scala/Some."<init>":(Ljava/lang/Object;)V
	goto	l2 // areturn
l1	getstatic	Field scala/None$.MODULE$:Lscala/None$;
l2	areturn
  Labels:
   	l1 = 30 // getstatic
   	l2 = 33 // areturn
  LocalVariableTable: 
   Start  Length  Slot  Name   Signature
   0      34      0    this       Lscala/util/matching/Regex;
   0      34      1    source       Ljava/lang/CharSequence;
   9      25      2    m       Ljava/util/regex/Matcher;

  Signature: length = 0x2
   00 68 

public scala.Option findFirstMatchIn(java.lang.CharSequence);
  Signature: (Ljava/lang/CharSequence;)Lscala/Option;
  Code:
   Stack=7, Locals=3, Args_size=2
	aload_0
	invokevirtual	Method pattern:()Ljava/util/regex/Pattern;
	aload_1
	invokevirtual	Method java/util/regex/Pattern.matcher:(Ljava/lang/CharSequence;)Ljava/util/regex/Matcher;
	astore_2
	aload_2
	invokevirtual	Method java/util/regex/Matcher.find:()Z
	ifeq	l1 // getstatic
	new	class scala/Some
	dup
	new	class scala/util/matching/Regex$Match
	dup
	aload_1
	aload_2
	aload_0
	getfield	Field groupNames:Lscala/collection/Seq;
	invokespecial	Method scala/util/matching/Regex$Match."<init>":(Ljava/lang/CharSequence;Ljava/util/regex/Matcher;Lscala/collection/Seq;)V
	invokespecial	Method scala/Some."<init>":(Ljava/lang/Object;)V
	goto	l2 // areturn
l1	getstatic	Field scala/None$.MODULE$:Lscala/None$;
l2	areturn
  Labels:
   	l1 = 39 // getstatic
   	l2 = 42 // areturn
  LocalVariableTable: 
   Start  Length  Slot  Name   Signature
   0      43      0    this       Lscala/util/matching/Regex;
   0      43      1    source       Ljava/lang/CharSequence;
   9      34      2    m       Ljava/util/regex/Matcher;

  Signature: length = 0x2
   00 63 

public scala.Option findFirstIn(java.lang.CharSequence);
  Signature: (Ljava/lang/CharSequence;)Lscala/Option;
  Code:
   Stack=3, Locals=3, Args_size=2
	aload_0
	invokevirtual	Method pattern:()Ljava/util/regex/Pattern;
	aload_1
	invokevirtual	Method java/util/regex/Pattern.matcher:(Ljava/lang/CharSequence;)Ljava/util/regex/Matcher;
	astore_2
	aload_2
	invokevirtual	Method java/util/regex/Matcher.find:()Z
	ifeq	l1 // getstatic
	new	class scala/Some
	dup
	aload_2
	invokevirtual	Method java/util/regex/Matcher.group:()Ljava/lang/String;
	invokespecial	Method scala/Some."<init>":(Ljava/lang/Object;)V
	goto	l2 // areturn
l1	getstatic	Field scala/None$.MODULE$:Lscala/None$;
l2	areturn
  Labels:
   	l1 = 30 // getstatic
   	l2 = 33 // areturn
  LocalVariableTable: 
   Start  Length  Slot  Name   Signature
   0      34      0    this       Lscala/util/matching/Regex;
   0      34      1    source       Ljava/lang/CharSequence;
   9      25      2    m       Ljava/util/regex/Matcher;

  Signature: length = 0x2
   00 68 

public scala.util.matching.Regex$MatchIterator findAllIn(java.lang.CharSequence);
  Signature: (Ljava/lang/CharSequence;)Lscala/util/matching/Regex$MatchIterator;
  Code:
   Stack=5, Locals=2, Args_size=2
	new	class scala/util/matching/Regex$MatchIterator
	dup
	aload_1
	aload_0
	aload_0
	getfield	Field groupNames:Lscala/collection/Seq;
	invokespecial	Method scala/util/matching/Regex$MatchIterator."<init>":(Ljava/lang/CharSequence;Lscala/util/matching/Regex;Lscala/collection/Seq;)V
	areturn
  Labels:
  LocalVariableTable: 
   Start  Length  Slot  Name   Signature
   0      14      0    this       Lscala/util/matching/Regex;
   0      14      1    source       Ljava/lang/CharSequence;


public scala.Option unapplySeq(java.lang.Object);
  Signature: (Ljava/lang/Object;)Lscala/Option;
  Code:
   Stack=7, Locals=10, Args_size=2
	aload_1
	instanceof	class java/lang/CharSequence
	ifeq	l1 // aload_1
	aload_1
	checkcast	class java/lang/CharSequence
	astore_2
	iconst_1
	ifeq	l2 // new
	aload_0
	invokevirtual	Method pattern:()Ljava/util/regex/Pattern;
	aload_2
	invokevirtual	Method java/util/regex/Pattern.matcher:(Ljava/lang/CharSequence;)Ljava/util/regex/Matcher;
	astore	5
	aload	5
	invokevirtual	Method java/util/regex/Matcher.matches:()Z
	ifeq	l3 // getstatic
	new	class scala/Some
	dup
	aload	5
	invokevirtual	Method java/util/regex/Matcher.groupCount:()I
	istore	4
	iconst_1
	istore_3
	new	class scala/collection/immutable/Range$$anon$1
	dup
	iload_3
	iload	4
	invokespecial	Method scala/collection/immutable/Range$$anon$1."<init>":(II)V
	invokeinterface	InterfaceMethod scala/collection/TraversableLike.toList:()Lscala/collection/immutable/List;
	new	class scala/util/matching/Regex$$anonfun$unapplySeq$1
	dup
	aload_0
	aload	5
	invokespecial	Method scala/util/matching/Regex$$anonfun$unapplySeq$1."<init>":(Lscala/util/matching/Regex;Ljava/util/regex/Matcher;)V
	getstatic	Field scala/collection/immutable/List$.MODULE$:Lscala/collection/immutable/List$;
	astore	6
	new	class scala/collection/generic/TraversableFactory$GenericCanBuildFrom
	dup
	aload	6
	invokespecial	Method scala/collection/generic/TraversableFactory$GenericCanBuildFrom."<init>":(Lscala/collection/generic/TraversableFactory;)V
	invokeinterface	InterfaceMethod scala/collection/TraversableLike.map:(Lscala/Function1;Lscala/collection/generic/CanBuildFrom;)Ljava/lang/Object;
	invokespecial	Method scala/Some."<init>":(Ljava/lang/Object;)V
	goto	l4 // areturn
l3	getstatic	Field scala/None$.MODULE$:Lscala/None$;
	goto	l4 // areturn
l2	new	class scala/MatchError
	dup
	aload_1
	invokevirtual	Method java/lang/Object.toString:()Ljava/lang/String;
	invokespecial	Method scala/MatchError."<init>":(Ljava/lang/String;)V
	athrow
l1	aload_1
	instanceof	class scala/util/matching/Regex$Match
	ifeq	l5 // iconst_1
	aload_1
	checkcast	class scala/util/matching/Regex$Match
	astore	7
	new	class scala/Some
	dup
	aload	7
	invokeinterface	InterfaceMethod scala/util/matching/Regex$MatchData.matched:()Ljava/lang/String;
	invokespecial	Method scala/Some."<init>":(Ljava/lang/Object;)V
	astore	8
	iconst_1
	ifeq	l6 // iconst_1
	aload	8
	getfield	Field scala/Some.x:Ljava/lang/Object;
	checkcast	class java/lang/String
	astore	9
	iconst_1
	ifeq	l7 // new
	aload_0
	aload	9
	invokevirtual	Method unapplySeq:(Ljava/lang/Object;)Lscala/Option;
	goto	l4 // areturn
l7	new	class scala/MatchError
	dup
	aload_1
	invokevirtual	Method java/lang/Object.toString:()Ljava/lang/String;
	invokespecial	Method scala/MatchError."<init>":(Ljava/lang/String;)V
	athrow
l6	iconst_1
	ifne	l8 // getstatic
	new	class scala/MatchError
	dup
	aload_1
	invokevirtual	Method java/lang/Object.toString:()Ljava/lang/String;
	invokespecial	Method scala/MatchError."<init>":(Ljava/lang/String;)V
	athrow
l5	iconst_1
	ifeq	l9 // new
l8	getstatic	Field scala/None$.MODULE$:Lscala/None$;
l4	areturn
l9	new	class scala/MatchError
	dup
	aload_1
	invokevirtual	Method java/lang/Object.toString:()Ljava/lang/String;
	invokespecial	Method scala/MatchError."<init>":(Ljava/lang/String;)V
	athrow
  Labels:
   	l3 = 97 // getstatic
   	l2 = 103 // new
   	l1 = 115 // aload_1
   	l7 = 171 // new
   	l6 = 183 // iconst_1
   	l5 = 199 // iconst_1
   	l8 = 203 // getstatic
   	l4 = 206 // areturn
   	l9 = 207 // new
  LocalVariableTable: 
   Start  Length  Slot  Name   Signature
   0      219      0    this       Lscala/util/matching/Regex;
   0      219      1    target       Ljava/lang/Object;
   12      103      2    temp2       Ljava/lang/CharSequence;
   26      77      5    m$1       Ljava/util/regex/Matcher;
   128      71      7    temp3       Lscala/util/matching/Regex$Match;
   203      3      7    temp3       Lscala/util/matching/Regex$Match;
   144      55      8    temp4       Lscala/Some;
   203      3      8    temp4       Lscala/Some;
   158      25      9    temp5       Ljava/lang/String;

  Signature: length = 0x2
   00 FFFFFFB9 

public java.util.regex.Pattern pattern();
  Signature: ()Ljava/util/regex/Pattern;
  Code:
   Stack=1, Locals=1, Args_size=1
	aload_0
	getfield	Field pattern:Ljava/util/regex/Pattern;
	areturn
  Labels:

}

