Compiled from "Regex.scala"
public class scala.util.matching.Regex extends java.lang.Object implements scala.ScalaObject,java.io.Serializable
  SourceFile: "Regex.scala"
  ScalaSig: length = 0x9C4
   05 00 FFFFFF82 4C 06 08 01 02 FFFFFF84 FFFFFF80 FFFFFF80 FFFFFF80 00 09 02 05
   52 65 67 65 78 0A 02 03 04 01 08 6D 61 74 63 68
   69 6E 67 0A 02 05 06 01 04 75 74 69 6C 0A 01 07
   01 05 73 63 61 6C 61 03 00 13 03 00 0A 12 10 02
   0B 10 0D 01 0C 0A 02 0D 0E 01 04 6C 61 6E 67 0A
   01 0F 01 04 6A 61 76 61 09 02 11 0C 02 06 4F 62
   6A 65 63 74 10 02 13 14 0D 01 06 09 02 15 06 02
   0B 53 63 61 6C 61 4F 62 6A 65 63 74 08 08 17 00
   FFFFFF82 FFFFFF80 FFFFFFA0 FFFFFF80 04 18 01 05 72 65 67 65 78 10 02 19
   1C 0E 02 13 1A 09 02 1B 06 01 06 50 72 65 64 65
   66 09 02 1D 1E 02 06 53 74 72 69 6E 67 0A 02 1B
   06 08 08 20 00 FFFFFF82 FFFFFF80 FFFFFFA0 FFFFFF80 04 21 01 0A 67 72 6F
   75 70 4E 61 6D 65 73 10 03 13 22 18 09 02 23 06
   02 0A 3C 72 65 70 65 61 74 65 64 3E 08 05 25 00
   FFFFFF84 00 26 01 06 3C 69 6E 69 74 3E 14 03 27 29 2A
   10 02 28 00 0D 01 02 08 05 17 24 FFFFFFC0 00 18 08 05
   20 24 FFFFFFC0 00 21 08 07 2C 00 FFFFFFC2 FFFFFF80 FFFFFF84 00 2D 01 07
   70 61 74 74 65 72 6E 15 01 2E 10 02 2F 32 0D 01
   30 0A 02 17 31 0A 02 05 0E 09 02 33 30 02 07 50
   61 74 74 65 72 6E 08 06 35 00 FFFFFFA0 FFFFFF80 04 2E 01 08
   70 61 74 74 65 72 6E 20 08 05 37 00 FFFFFF84 00 38 01
   0A 75 6E 61 70 70 6C 79 53 65 71 14 02 39 44 10
   03 13 3A 3C 09 02 3B 06 02 06 4F 70 74 69 6F 6E
   10 03 3D 42 18 0D 01 3E 0A 02 3F 40 01 09 69 6D
   6D 75 74 61 62 6C 65 0A 02 41 06 01 0A 63 6F 6C
   6C 65 63 74 69 6F 6E 09 02 43 3E 02 04 4C 69 73
   74 08 05 45 36 FFFFFFC0 00 46 01 06 74 61 72 67 65 74
   10 02 13 47 09 02 48 06 02 03 41 6E 79 08 05 4A
   00 FFFFFF84 00 4B 01 09 66 69 6E 64 41 6C 6C 49 6E 14
   03 4C FFFFFF82 1D 10 03 4D FFFFFF81 60 0E 02 28 4E 07 05 4F
   02 FFFFFF88 02 50 01 05 52 65 67 65 78 10 02 28 51 06
   08 01 02 FFFFFF84 FFFFFF80 FFFFFF80 FFFFFF88 02 52 13 03 51 0A 12 08 05
   25 51 FFFFFF84 00 54 14 01 50 06 08 56 51 FFFFFF84 FFFFFF90 FFFFFF80 FFFFFF81
   00 57 02 09 4D 61 74 63 68 44 61 74 61 13 03 55
   0A 12 08 05 59 55 FFFFFF84 00 5A 01 06 24 69 6E 69 74
   24 14 01 5B 10 02 13 5C 09 02 5D 06 02 04 55 6E
   69 74 08 07 5F 55 FFFFFFC2 FFFFFF80 FFFFFF86 00 60 01 06 73 6F 75
   72 63 65 15 01 61 10 02 0B 62 09 02 63 0C 02 0C
   43 68 61 72 53 65 71 75 65 6E 63 65 08 07 20 55
   FFFFFFC2 FFFFFF80 FFFFFF86 00 65 15 01 66 10 03 67 68 18 0D 01 40
   09 02 69 40 02 03 53 65 71 08 05 6B 55 FFFFFF86 00 6C
   01 0A 67 72 6F 75 70 43 6F 75 6E 74 15 01 6D 10
   02 13 6E 09 02 6F 06 02 03 49 6E 74 08 05 71 55
   FFFFFF86 00 6C 01 05 73 74 61 72 74 08 05 71 55 FFFFFF86 00
   73 14 02 6D 74 08 05 75 72 FFFFFFC0 00 6D 01 01 69 08
   05 77 55 FFFFFF86 00 6C 01 03 65 6E 64 08 05 77 55 FFFFFF86
   00 79 14 02 6D 7A 08 05 75 78 FFFFFFC0 00 6D 08 05 7C
   55 FFFFFF84 00 7D 01 07 6D 61 74 63 68 65 64 15 01 18
   08 06 7F 55 FFFFFF84 00 FFFFFF81 00 01 05 67 72 6F 75 70 14
   03 18 FFFFFF81 01 08 05 75 7E FFFFFFC0 00 6D 08 07 FFFFFF81 03 55
   FFFFFF84 00 FFFFFF81 04 01 09 73 75 62 67 72 6F 75 70 73 15
   01 3C 08 06 FFFFFF81 06 55 FFFFFF84 00 60 01 06 62 65 66 6F
   72 65 08 07 FFFFFF81 06 55 FFFFFF84 00 FFFFFF81 08 14 03 61 FFFFFF81 09
   08 06 75 FFFFFF81 07 FFFFFFC0 00 6D 08 06 FFFFFF81 0B 55 FFFFFF84 00 60
   01 05 61 66 74 65 72 08 07 FFFFFF81 0B 55 FFFFFF84 00 FFFFFF81 0D
   14 03 61 FFFFFF81 0E 08 06 75 FFFFFF81 0C FFFFFFC0 00 6D 08 0A FFFFFF81
   10 55 FFFFFF88 FFFFFFC2 FFFFFF80 FFFFFF84 04 FFFFFF81 11 01 0B 6E 61 6D 65 54
   6F 49 6E 64 65 78 15 02 FFFFFF81 12 10 05 19 FFFFFF81 13 18
   6D 09 03 FFFFFF81 14 1E 02 03 4D 61 70 08 0A FFFFFF81 16 55
   FFFFFF88 FFFFFF80 FFFFFFA0 FFFFFFA0 04 FFFFFF81 12 01 0C 6E 61 6D 65 54 6F 49
   6E 64 65 78 20 08 06 7F 55 FFFFFF84 00 FFFFFF81 18 14 03 18
   FFFFFF81 19 08 07 FFFFFF81 1A FFFFFF81 17 FFFFFFC0 00 18 01 02 69 64 08
   07 FFFFFF81 1C 55 FFFFFF84 20 FFFFFF81 1D 01 08 74 6F 53 74 72 69
   6E 67 14 01 18 06 0A FFFFFF81 1F 51 FFFFFF84 FFFFFF80 FFFFFF80 FFFFFF80 00 FFFFFF81
   20 02 05 4D 61 74 63 68 13 06 FFFFFF81 1E 0A FFFFFF81 21 12
   10 03 FFFFFF81 22 55 0D 01 51 08 09 5F FFFFFF81 1E FFFFFF82 FFFFFFC2 FFFFFF80
   FFFFFF84 00 60 08 0A FFFFFF81 25 FFFFFF81 1E FFFFFF82 FFFFFF80 FFFFFFA0 FFFFFF80 04 61 01
   07 73 6F 75 72 63 65 20 08 0B FFFFFF81 27 FFFFFF81 1E FFFFFF82 FFFFFF80
   FFFFFFA0 FFFFFF80 04 FFFFFF81 28 01 07 6D 61 74 63 68 65 72 10 03
   2F FFFFFF81 29 09 03 FFFFFF81 2A 30 02 07 4D 61 74 63 68 65
   72 08 09 20 FFFFFF81 1E FFFFFF82 FFFFFFC2 FFFFFF80 FFFFFF84 00 65 08 0A FFFFFF81 2D
   FFFFFF81 1E FFFFFF82 FFFFFF80 FFFFFFA0 FFFFFF80 04 66 01 0B 67 72 6F 75 70 4E
   61 6D 65 73 20 08 07 25 FFFFFF81 1E FFFFFF84 00 FFFFFF81 2F 14 08
   FFFFFF81 30 FFFFFF81 31 FFFFFF81 32 FFFFFF81 33 10 04 FFFFFF81 22 FFFFFF81 1E 08 06
   5F FFFFFF81 2E FFFFFFC0 00 61 08 08 FFFFFF81 27 FFFFFF81 2E FFFFFFC0 00 FFFFFF81 28
   08 06 20 FFFFFF81 2E FFFFFFC0 00 66 08 08 71 FFFFFF81 1E FFFFFFC2 FFFFFF80 FFFFFF84
   00 6C 08 08 FFFFFF81 36 FFFFFF81 1E FFFFFFA0 FFFFFF80 04 6D 01 06 73 74
   61 72 74 20 08 08 77 FFFFFF81 1E FFFFFFC2 FFFFFF80 FFFFFF84 00 6C 08 08
   FFFFFF81 39 FFFFFF81 1E FFFFFFA0 FFFFFF80 04 6D 01 04 65 6E 64 20 08 06
   6B FFFFFF81 1E FFFFFF84 00 6C 08 0B FFFFFF81 3C FFFFFF81 1E FFFFFF88 FFFFFFC2 FFFFFF80 FFFFFF84
   04 FFFFFF81 3D 01 06 73 74 61 72 74 73 15 02 FFFFFF81 3E 10
   04 13 FFFFFF81 3F 6D 09 03 FFFFFF81 40 06 02 05 41 72 72 61
   79 08 0B FFFFFF81 42 FFFFFF81 1E FFFFFF88 FFFFFF80 FFFFFFA0 FFFFFFA0 04 FFFFFF81 3E 01 07
   73 74 61 72 74 73 20 08 0B FFFFFF81 44 FFFFFF81 1E FFFFFF88 FFFFFFC2 FFFFFF80
   FFFFFF84 04 FFFFFF81 3D 01 04 65 6E 64 73 08 0B FFFFFF81 46 FFFFFF81 1E
   FFFFFF88 FFFFFF80 FFFFFFA0 FFFFFFA0 04 FFFFFF81 3E 01 05 65 6E 64 73 20 08 07
   71 FFFFFF81 1E FFFFFF84 00 FFFFFF81 48 14 03 6D FFFFFF81 49 08 06 75 FFFFFF81
   47 FFFFFFC0 00 6D 08 07 77 FFFFFF81 1E FFFFFF84 00 FFFFFF81 4B 14 03 6D
   FFFFFF81 4C 08 06 75 FFFFFF81 4A FFFFFFC0 00 6D 08 08 FFFFFF81 4E FFFFFF81 1E
   FFFFFF84 00 FFFFFF81 4F 01 05 66 6F 72 63 65 15 02 FFFFFF81 50 0D
   02 FFFFFF81 1E 07 07 FFFFFF81 52 51 FFFFFF88 02 FFFFFF81 53 01 05 4D 61
   74 63 68 10 04 FFFFFF81 22 FFFFFF81 54 06 0A FFFFFF81 1F 51 FFFFFF84 FFFFFF80
   FFFFFF80 FFFFFF88 02 FFFFFF81 55 13 04 FFFFFF81 54 0A 12 08 07 25 FFFFFF81 54
   FFFFFF84 00 FFFFFF81 57 14 02 FFFFFF81 53 08 08 FFFFFF81 59 FFFFFF81 54 FFFFFF84 00
   FFFFFF81 5A 01 07 75 6E 61 70 70 6C 79 14 04 FFFFFF81 5B FFFFFF81
   5E 10 04 13 FFFFFF81 5C 18 09 03 FFFFFF81 5D 06 02 04 53 6F
   6D 65 08 08 FFFFFF81 5F FFFFFF81 58 FFFFFFC0 00 FFFFFF81 30 01 01 6D 06
   0A FFFFFF81 61 51 FFFFFF84 FFFFFF80 FFFFFF80 FFFFFF80 00 FFFFFF81 62 02 0D 4D 61 74
   63 68 49 74 65 72 61 74 6F 72 13 08 FFFFFF81 60 0A FFFFFF81
   63 FFFFFF81 21 12 10 04 67 FFFFFF81 64 18 09 03 FFFFFF81 65 40 02
   08 49 74 65 72 61 74 6F 72 08 09 5F FFFFFF81 60 FFFFFF82 FFFFFFC2
   FFFFFF80 FFFFFF84 00 60 08 0A FFFFFF81 25 FFFFFF81 60 FFFFFF82 FFFFFF80 FFFFFFA0 FFFFFF80 04 61
   08 0A 17 FFFFFF81 60 FFFFFF82 FFFFFFC2 FFFFFF80 FFFFFF84 00 FFFFFF81 69 15 01 27 08
   0A FFFFFF81 6B FFFFFF81 60 FFFFFF82 FFFFFF80 FFFFFFA0 FFFFFF80 04 27 01 06 72 65 67
   65 78 20 08 09 20 FFFFFF81 60 FFFFFF82 FFFFFFC2 FFFFFF80 FFFFFF84 00 65 08 0A
   FFFFFF81 2D FFFFFF81 60 FFFFFF82 FFFFFF80 FFFFFFA0 FFFFFF80 04 66 08 07 25 FFFFFF81 60 FFFFFF84
   00 FFFFFF81 6F 14 08 FFFFFF81 70 FFFFFF81 71 FFFFFF81 72 FFFFFF81 73 10 04 FFFFFF81
   22 FFFFFF81 60 08 06 5F FFFFFF81 6E FFFFFFC0 00 61 08 06 17 FFFFFF81 6E
   FFFFFFC0 00 27 08 06 20 FFFFFF81 6E FFFFFFC0 00 66 08 0A FFFFFF81 27 FFFFFF81
   60 FFFFFFC2 FFFFFF80 FFFFFF84 04 FFFFFF81 75 15 02 FFFFFF81 28 08 09 FFFFFF81 77 FFFFFF81
   60 FFFFFFA0 FFFFFF80 04 FFFFFF81 28 01 08 6D 61 74 63 68 65 72 20
   08 0A FFFFFF81 79 FFFFFF81 60 FFFFFFC0 FFFFFF80 FFFFFF84 04 FFFFFF81 7A 01 08 6E 65
   78 74 53 65 65 6E 15 02 FFFFFF81 7B 10 03 13 FFFFFF81 7C 09
   03 FFFFFF81 7D 06 02 07 42 6F 6F 6C 65 61 6E 08 0A FFFFFF81
   7F FFFFFF81 60 FFFFFFC0 FFFFFF80 FFFFFF84 04 FFFFFF82 00 01 0C 6E 65 78 74 53
   65 65 6E 5F 24 65 71 14 03 5B FFFFFF82 01 08 0A FFFFFF82 02
   FFFFFF81 7E FFFFFF81 FFFFFF80 FFFFFFC0 00 FFFFFF81 7B 01 03 78 24 31 08 09 FFFFFF82
   04 FFFFFF81 60 FFFFFFA0 FFFFFFA0 04 FFFFFF81 7B 01 09 6E 65 78 74 53 65
   65 6E 20 08 08 FFFFFF82 06 FFFFFF81 60 FFFFFF84 00 FFFFFF81 7A 01 07 68
   61 73 4E 65 78 74 08 08 FFFFFF82 08 FFFFFF81 60 FFFFFF84 00 FFFFFF81 1D
   01 04 6E 65 78 74 08 08 FFFFFF81 1C FFFFFF81 60 FFFFFF84 20 FFFFFF82 0A
   14 02 FFFFFF82 0B 10 03 0B FFFFFF82 0C 09 02 1D 0C 08 06 71
   FFFFFF81 60 FFFFFF84 00 6C 08 07 71 FFFFFF81 60 FFFFFF84 00 FFFFFF82 0F 14 03
   6D FFFFFF82 10 08 06 75 FFFFFF82 0E FFFFFFC0 00 6D 08 06 77 FFFFFF81 60
   FFFFFF84 00 6C 08 07 77 FFFFFF81 60 FFFFFF84 00 FFFFFF82 13 14 03 6D FFFFFF82
   14 08 06 75 FFFFFF82 12 FFFFFFC0 00 6D 08 06 6B FFFFFF81 60 FFFFFF84 00
   6C 08 08 FFFFFF82 17 FFFFFF81 60 FFFFFF84 00 FFFFFF82 18 01 09 6D 61 74
   63 68 44 61 74 61 15 02 FFFFFF82 19 12 05 FFFFFF82 1A 0A FFFFFF82
   1C 06 0B FFFFFF82 1B FFFFFF82 16 FFFFFF84 FFFFFF80 FFFFFF80 FFFFFF80 00 FFFFFF82 19 02 0C
   3C 72 65 66 69 6E 65 6D 65 6E 74 3E 10 05 67 FFFFFF81
   64 FFFFFF81 30 08 05 5F 49 FFFFFFC0 00 61 08 07 FFFFFF82 1F 00 FFFFFF84
   00 FFFFFF82 20 01 0B 66 69 6E 64 46 69 72 73 74 49 6E
   14 04 FFFFFF82 21 FFFFFF82 22 10 03 13 3A 18 08 06 5F FFFFFF82 1E
   FFFFFFC0 00 61 08 07 FFFFFF82 24 00 FFFFFF84 00 FFFFFF82 25 01 10 66 69
   6E 64 46 69 72 73 74 4D 61 74 63 68 49 6E 14 04
   FFFFFF82 26 FFFFFF82 28 10 04 13 3A FFFFFF82 27 10 03 4D FFFFFF81 1E 08
   06 5F FFFFFF82 23 FFFFFFC0 00 61 08 07 FFFFFF82 2A 00 FFFFFF84 00 FFFFFF82 2B
   01 0C 66 69 6E 64 50 72 65 66 69 78 4F 66 14 04
   FFFFFF82 21 FFFFFF82 2C 08 06 5F FFFFFF82 29 FFFFFFC0 00 61 08 07 FFFFFF82 2E
   00 FFFFFF84 00 FFFFFF82 2F 01 11 66 69 6E 64 50 72 65 66 69
   78 4D 61 74 63 68 4F 66 14 04 FFFFFF82 26 FFFFFF82 30 08 06
   5F FFFFFF82 2D FFFFFFC0 00 61 08 07 FFFFFF82 32 00 FFFFFF84 00 FFFFFF82 33 01
   0C 72 65 70 6C 61 63 65 41 6C 6C 49 6E 14 05 18
   FFFFFF82 34 FFFFFF82 35 08 06 45 FFFFFF82 31 FFFFFFC0 00 61 08 07 FFFFFF82 36
   FFFFFF82 31 FFFFFFC0 00 18 01 0B 72 65 70 6C 61 63 65 6D 65
   6E 74 08 07 FFFFFF82 38 00 FFFFFF84 00 FFFFFF82 39 01 0E 72 65 70
   6C 61 63 65 46 69 72 73 74 49 6E 14 05 18 FFFFFF82 3A
   FFFFFF82 3B 08 06 45 FFFFFF82 37 FFFFFFC0 00 61 08 07 FFFFFF82 36 FFFFFF82 37
   FFFFFFC0 00 18 08 07 FFFFFF82 3D 00 FFFFFF84 00 FFFFFF82 3E 01 05 73 70
   6C 69 74 14 04 FFFFFF82 3F FFFFFF82 40 10 04 13 FFFFFF81 3F 18 08
   07 FFFFFF82 41 FFFFFF82 3C FFFFFFC0 00 61 01 07 74 6F 53 70 6C 69
   74 08 07 FFFFFF81 1C 00 FFFFFF84 20 FFFFFF81 1D 28 05 00 FFFFFF82 44 FFFFFF82
   47 10 03 13 FFFFFF82 45 09 03 FFFFFF82 46 06 02 10 53 65 72
   69 61 6C 56 65 72 73 69 6F 6E 55 49 44 1E 08 FFFFFFE2
   FFFFFFED FFFFFFD5 6A FFFFFF9E FFFFFFF0 21 FFFFFFBF 28 03 00 FFFFFF82 49 10 03 13 FFFFFF82
   4A 09 03 FFFFFF82 4B 06 02 0C 73 65 72 69 61 6C 69 7A
   61 62 6C 65 
  InnerClass: 
   public #188= #85 of #11; //Match=class scala/util/matching/Regex$Match of class scala/util/matching/Regex
   public final #191= #129 of #190; //$anon$1=class scala/collection/immutable/Range$$anon$1 of class scala/collection/immutable/Range
   public abstract #192= #166 of #11; //MatchData=class scala/util/matching/Regex$MatchData of class scala/util/matching/Regex
   public #195= #194 of #190; //Inclusive=class scala/collection/immutable/Range$Inclusive of class scala/collection/immutable/Range
   public #196= #113 of #11; //MatchIterator=class scala/util/matching/Regex$MatchIterator of class scala/util/matching/Regex
   public abstract #199= #198 of #11; //MatchData$class=class scala/util/matching/Regex$MatchData$class of class scala/util/matching/Regex
   public final #200= #140 of #11; //$anonfun$unapplySeq$1=class scala/util/matching/Regex$$anonfun$unapplySeq$1 of class scala/util/matching/Regex
   public #203= #150 of #202; //GenericCanBuildFrom=class scala/collection/generic/TraversableFactory$GenericCanBuildFrom of class scala/collection/generic/TraversableFactory
  minor version: 0
  major version: 49
  Constant pool:
const #1 = Asciz	SourceFile;
const #2 = Asciz	Regex.scala;
const #3 = Asciz	<clinit>;
const #4 = Asciz	()V;
const #5 = Asciz	Code;
const #6 = Asciz	serialVersionUID;
const #7 = Asciz	J;
const #8 = long	-2094783597747625537l;
const #10 = Asciz	scala/util/matching/Regex;
const #11 = class	#10;	//  scala/util/matching/Regex
const #12 = NameAndType	#6:#7;//  serialVersionUID:J
const #13 = Field	#11.#12;	//  scala/util/matching/Regex.serialVersionUID:J
const #14 = Asciz	pattern;
const #15 = Asciz	Ljava/util/regex/Pattern;;
const #16 = Asciz	groupNames;
const #17 = Asciz	Lscala/collection/Seq;;
const #18 = Asciz	Lscala/collection/Seq<Ljava/lang/String;>;;
const #19 = Asciz	Signature;
const #20 = Asciz	regex;
const #21 = Asciz	Ljava/lang/String;;
const #22 = Asciz	<init>;
const #23 = Asciz	(Ljava/lang/String;Lscala/collection/Seq;)V;
const #24 = Asciz	LineNumberTable;
const #25 = NameAndType	#20:#21;//  regex:Ljava/lang/String;
const #26 = Field	#11.#25;	//  scala/util/matching/Regex.regex:Ljava/lang/String;
const #27 = NameAndType	#16:#17;//  groupNames:Lscala/collection/Seq;
const #28 = Field	#11.#27;	//  scala/util/matching/Regex.groupNames:Lscala/collection/Seq;
const #29 = Asciz	java/lang/Object;
const #30 = class	#29;	//  java/lang/Object
const #31 = NameAndType	#22:#4;//  "<init>":()V
const #32 = Method	#30.#31;	//  java/lang/Object."<init>":()V
const #33 = Asciz	java/util/regex/Pattern;
const #34 = class	#33;	//  java/util/regex/Pattern
const #35 = Asciz	compile;
const #36 = Asciz	(Ljava/lang/String;)Ljava/util/regex/Pattern;;
const #37 = NameAndType	#35:#36;//  compile:(Ljava/lang/String;)Ljava/util/regex/Pattern;
const #38 = Method	#34.#37;	//  java/util/regex/Pattern.compile:(Ljava/lang/String;)Ljava/util/regex/Pattern;
const #39 = NameAndType	#14:#15;//  pattern:Ljava/util/regex/Pattern;
const #40 = Field	#11.#39;	//  scala/util/matching/Regex.pattern:Ljava/util/regex/Pattern;
const #41 = Asciz	this;
const #42 = Asciz	Lscala/util/matching/Regex;;
const #43 = Asciz	LocalVariableTable;
const #44 = Asciz	(Ljava/lang/String;Lscala/collection/Seq<Ljava/lang/String;>;)V;
const #45 = Asciz	toString;
const #46 = Asciz	()Ljava/lang/String;;
const #47 = Asciz	split;
const #48 = Asciz	(Ljava/lang/CharSequence;)[Ljava/lang/String;;
const #49 = Asciz	()Ljava/util/regex/Pattern;;
const #50 = NameAndType	#14:#49;//  pattern:()Ljava/util/regex/Pattern;
const #51 = Method	#11.#50;	//  scala/util/matching/Regex.pattern:()Ljava/util/regex/Pattern;
const #52 = NameAndType	#47:#48;//  split:(Ljava/lang/CharSequence;)[Ljava/lang/String;
const #53 = Method	#34.#52;	//  java/util/regex/Pattern.split:(Ljava/lang/CharSequence;)[Ljava/lang/String;
const #54 = Asciz	toSplit;
const #55 = Asciz	Ljava/lang/CharSequence;;
const #56 = Asciz	replaceFirstIn;
const #57 = Asciz	(Ljava/lang/CharSequence;Ljava/lang/String;)Ljava/lang/String;;
const #58 = Asciz	matcher;
const #59 = Asciz	(Ljava/lang/CharSequence;)Ljava/util/regex/Matcher;;
const #60 = NameAndType	#58:#59;//  matcher:(Ljava/lang/CharSequence;)Ljava/util/regex/Matcher;
const #61 = Method	#34.#60;	//  java/util/regex/Pattern.matcher:(Ljava/lang/CharSequence;)Ljava/util/regex/Matcher;
const #62 = Asciz	java/util/regex/Matcher;
const #63 = class	#62;	//  java/util/regex/Matcher
const #64 = Asciz	replaceFirst;
const #65 = Asciz	(Ljava/lang/String;)Ljava/lang/String;;
const #66 = NameAndType	#64:#65;//  replaceFirst:(Ljava/lang/String;)Ljava/lang/String;
const #67 = Method	#63.#66;	//  java/util/regex/Matcher.replaceFirst:(Ljava/lang/String;)Ljava/lang/String;
const #68 = Asciz	target;
const #69 = Asciz	replacement;
const #70 = Asciz	m;
const #71 = Asciz	Ljava/util/regex/Matcher;;
const #72 = Asciz	replaceAllIn;
const #73 = Asciz	replaceAll;
const #74 = NameAndType	#73:#65;//  replaceAll:(Ljava/lang/String;)Ljava/lang/String;
const #75 = Method	#63.#74;	//  java/util/regex/Matcher.replaceAll:(Ljava/lang/String;)Ljava/lang/String;
const #76 = Asciz	findPrefixMatchOf;
const #77 = Asciz	(Ljava/lang/CharSequence;)Lscala/Option;;
const #78 = Asciz	lookingAt;
const #79 = Asciz	()Z;
const #80 = NameAndType	#78:#79;//  lookingAt:()Z
const #81 = Method	#63.#80;	//  java/util/regex/Matcher.lookingAt:()Z
const #82 = Asciz	scala/Some;
const #83 = class	#82;	//  scala/Some
const #84 = Asciz	scala/util/matching/Regex$Match;
const #85 = class	#84;	//  scala/util/matching/Regex$Match
const #86 = Asciz	(Ljava/lang/CharSequence;Ljava/util/regex/Matcher;Lscala/collection/Seq;)V;
const #87 = NameAndType	#22:#86;//  "<init>":(Ljava/lang/CharSequence;Ljava/util/regex/Matcher;Lscala/collection/Seq;)V
const #88 = Method	#85.#87;	//  scala/util/matching/Regex$Match."<init>":(Ljava/lang/CharSequence;Ljava/util/regex/Matcher;Lscala/collection/Seq;)V
const #89 = Asciz	(Ljava/lang/Object;)V;
const #90 = NameAndType	#22:#89;//  "<init>":(Ljava/lang/Object;)V
const #91 = Method	#83.#90;	//  scala/Some."<init>":(Ljava/lang/Object;)V
const #92 = Asciz	scala/None$;
const #93 = class	#92;	//  scala/None$
const #94 = Asciz	MODULE$;
const #95 = Asciz	Lscala/None$;;
const #96 = NameAndType	#94:#95;//  MODULE$:Lscala/None$;
const #97 = Field	#93.#96;	//  scala/None$.MODULE$:Lscala/None$;
const #98 = Asciz	source;
const #99 = Asciz	(Ljava/lang/CharSequence;)Lscala/Option<Lscala/util/matching/Regex$Match;>;;
const #100 = Asciz	findPrefixOf;
const #101 = Asciz	group;
const #102 = NameAndType	#101:#46;//  group:()Ljava/lang/String;
const #103 = Method	#63.#102;	//  java/util/regex/Matcher.group:()Ljava/lang/String;
const #104 = Asciz	(Ljava/lang/CharSequence;)Lscala/Option<Ljava/lang/String;>;;
const #105 = Asciz	findFirstMatchIn;
const #106 = Asciz	find;
const #107 = NameAndType	#106:#79;//  find:()Z
const #108 = Method	#63.#107;	//  java/util/regex/Matcher.find:()Z
const #109 = Asciz	findFirstIn;
const #110 = Asciz	findAllIn;
const #111 = Asciz	(Ljava/lang/CharSequence;)Lscala/util/matching/Regex$MatchIterator;;
const #112 = Asciz	scala/util/matching/Regex$MatchIterator;
const #113 = class	#112;	//  scala/util/matching/Regex$MatchIterator
const #114 = Asciz	(Ljava/lang/CharSequence;Lscala/util/matching/Regex;Lscala/collection/Seq;)V;
const #115 = NameAndType	#22:#114;//  "<init>":(Ljava/lang/CharSequence;Lscala/util/matching/Regex;Lscala/collection/Seq;)V
const #116 = Method	#113.#115;	//  scala/util/matching/Regex$MatchIterator."<init>":(Ljava/lang/CharSequence;Lscala/util/matching/Regex;Lscala/collection/Seq;)V
const #117 = Asciz	unapplySeq;
const #118 = Asciz	(Ljava/lang/Object;)Lscala/Option;;
const #119 = Asciz	java/lang/CharSequence;
const #120 = class	#119;	//  java/lang/CharSequence
const #121 = Asciz	matches;
const #122 = NameAndType	#121:#79;//  matches:()Z
const #123 = Method	#63.#122;	//  java/util/regex/Matcher.matches:()Z
const #124 = Asciz	groupCount;
const #125 = Asciz	()I;
const #126 = NameAndType	#124:#125;//  groupCount:()I
const #127 = Method	#63.#126;	//  java/util/regex/Matcher.groupCount:()I
const #128 = Asciz	scala/collection/immutable/Range$$anon$1;
const #129 = class	#128;	//  scala/collection/immutable/Range$$anon$1
const #130 = Asciz	(II)V;
const #131 = NameAndType	#22:#130;//  "<init>":(II)V
const #132 = Method	#129.#131;	//  scala/collection/immutable/Range$$anon$1."<init>":(II)V
const #133 = Asciz	scala/collection/TraversableLike;
const #134 = class	#133;	//  scala/collection/TraversableLike
const #135 = Asciz	toList;
const #136 = Asciz	()Lscala/collection/immutable/List;;
const #137 = NameAndType	#135:#136;//  toList:()Lscala/collection/immutable/List;
const #138 = InterfaceMethod	#134.#137;	//  scala/collection/TraversableLike.toList:()Lscala/collection/immutable/List;
const #139 = Asciz	scala/util/matching/Regex$$anonfun$unapplySeq$1;
const #140 = class	#139;	//  scala/util/matching/Regex$$anonfun$unapplySeq$1
const #141 = Asciz	(Lscala/util/matching/Regex;Ljava/util/regex/Matcher;)V;
const #142 = NameAndType	#22:#141;//  "<init>":(Lscala/util/matching/Regex;Ljava/util/regex/Matcher;)V
const #143 = Method	#140.#142;	//  scala/util/matching/Regex$$anonfun$unapplySeq$1."<init>":(Lscala/util/matching/Regex;Ljava/util/regex/Matcher;)V
const #144 = Asciz	scala/collection/immutable/List$;
const #145 = class	#144;	//  scala/collection/immutable/List$
const #146 = Asciz	Lscala/collection/immutable/List$;;
const #147 = NameAndType	#94:#146;//  MODULE$:Lscala/collection/immutable/List$;
const #148 = Field	#145.#147;	//  scala/collection/immutable/List$.MODULE$:Lscala/collection/immutable/List$;
const #149 = Asciz	scala/collection/generic/TraversableFactory$GenericCanBuildFrom;
const #150 = class	#149;	//  scala/collection/generic/TraversableFactory$GenericCanBuildFrom
const #151 = Asciz	(Lscala/collection/generic/TraversableFactory;)V;
const #152 = NameAndType	#22:#151;//  "<init>":(Lscala/collection/generic/TraversableFactory;)V
const #153 = Method	#150.#152;	//  scala/collection/generic/TraversableFactory$GenericCanBuildFrom."<init>":(Lscala/collection/generic/TraversableFactory;)V
const #154 = Asciz	map;
const #155 = Asciz	(Lscala/Function1;Lscala/collection/generic/CanBuildFrom;)Ljava/lang/Object;;
const #156 = NameAndType	#154:#155;//  map:(Lscala/Function1;Lscala/collection/generic/CanBuildFrom;)Ljava/lang/Object;
const #157 = InterfaceMethod	#134.#156;	//  scala/collection/TraversableLike.map:(Lscala/Function1;Lscala/collection/generic/CanBuildFrom;)Ljava/lang/Object;
const #158 = Asciz	scala/MatchError;
const #159 = class	#158;	//  scala/MatchError
const #160 = NameAndType	#45:#46;//  toString:()Ljava/lang/String;
const #161 = Method	#30.#160;	//  java/lang/Object.toString:()Ljava/lang/String;
const #162 = Asciz	(Ljava/lang/String;)V;
const #163 = NameAndType	#22:#162;//  "<init>":(Ljava/lang/String;)V
const #164 = Method	#159.#163;	//  scala/MatchError."<init>":(Ljava/lang/String;)V
const #165 = Asciz	scala/util/matching/Regex$MatchData;
const #166 = class	#165;	//  scala/util/matching/Regex$MatchData
const #167 = Asciz	matched;
const #168 = NameAndType	#167:#46;//  matched:()Ljava/lang/String;
const #169 = InterfaceMethod	#166.#168;	//  scala/util/matching/Regex$MatchData.matched:()Ljava/lang/String;
const #170 = Asciz	x;
const #171 = Asciz	Ljava/lang/Object;;
const #172 = NameAndType	#170:#171;//  x:Ljava/lang/Object;
const #173 = Field	#83.#172;	//  scala/Some.x:Ljava/lang/Object;
const #174 = Asciz	java/lang/String;
const #175 = class	#174;	//  java/lang/String
const #176 = NameAndType	#117:#118;//  unapplySeq:(Ljava/lang/Object;)Lscala/Option;
const #177 = Method	#11.#176;	//  scala/util/matching/Regex.unapplySeq:(Ljava/lang/Object;)Lscala/Option;
const #178 = Asciz	temp2;
const #179 = Asciz	m$1;
const #180 = Asciz	temp3;
const #181 = Asciz	Lscala/util/matching/Regex$Match;;
const #182 = Asciz	temp4;
const #183 = Asciz	Lscala/Some;;
const #184 = Asciz	temp5;
const #185 = Asciz	(Ljava/lang/Object;)Lscala/Option<Lscala/collection/immutable/List<Ljava/lang/String;>;>;;
const #186 = Asciz	ScalaSig;
const #187 = Asciz	InnerClasses;
const #188 = Asciz	Match;
const #189 = Asciz	scala/collection/immutable/Range;
const #190 = class	#189;	//  scala/collection/immutable/Range
const #191 = Asciz	$anon$1;
const #192 = Asciz	MatchData;
const #193 = Asciz	scala/collection/immutable/Range$Inclusive;
const #194 = class	#193;	//  scala/collection/immutable/Range$Inclusive
const #195 = Asciz	Inclusive;
const #196 = Asciz	MatchIterator;
const #197 = Asciz	scala/util/matching/Regex$MatchData$class;
const #198 = class	#197;	//  scala/util/matching/Regex$MatchData$class
const #199 = Asciz	MatchData$class;
const #200 = Asciz	$anonfun$unapplySeq$1;
const #201 = Asciz	scala/collection/generic/TraversableFactory;
const #202 = class	#201;	//  scala/collection/generic/TraversableFactory
const #203 = Asciz	GenericCanBuildFrom;
const #204 = Asciz	scala/ScalaObject;
const #205 = class	#204;	//  scala/ScalaObject
const #206 = Asciz	java/io/Serializable;
const #207 = class	#206;	//  java/io/Serializable

{
public static final long serialVersionUID;

public static {};
  Code:
   Stack=2, Locals=0, Args_size=0
   0:	ldc2_w	#8; //long -2094783597747625537l
   3:	putstatic	#13; //Field serialVersionUID:J
   6:	return

public scala.util.matching.Regex(java.lang.String, scala.collection.Seq);
  Code:
   Stack=2, Locals=3, Args_size=3
   0:	aload_0
   1:	aload_1
   2:	putfield	#26; //Field regex:Ljava/lang/String;
   5:	aload_0
   6:	aload_2
   7:	putfield	#28; //Field groupNames:Lscala/collection/Seq;
   10:	aload_0
   11:	invokespecial	#32; //Method java/lang/Object."<init>":()V
   14:	aload_0
   15:	aload_1
   16:	invokestatic	#38; //Method java/util/regex/Pattern.compile:(Ljava/lang/String;)Ljava/util/regex/Pattern;
   19:	putfield	#40; //Field pattern:Ljava/util/regex/Pattern;
   22:	return
  LineNumberTable: 
   line 37: 0
   line 42: 14

  LocalVariableTable: 
   Start  Length  Slot  Name   Signature
   0      23      0    this       Lscala/util/matching/Regex;
   0      23      1    regex       Ljava/lang/String;
   0      23      2    groupNames       Lscala/collection/Seq;

  Signature: length = 0x2
   00 2C 

public java.lang.String toString();
  Code:
   Stack=1, Locals=1, Args_size=1
   0:	aload_0
   1:	getfield	#26; //Field regex:Ljava/lang/String;
   4:	areturn
  LineNumberTable: 
   line 132: 0


public java.lang.String[] split(java.lang.CharSequence);
  Code:
   Stack=2, Locals=2, Args_size=2
   0:	aload_0
   1:	invokevirtual	#51; //Method pattern:()Ljava/util/regex/Pattern;
   4:	aload_1
   5:	invokevirtual	#53; //Method java/util/regex/Pattern.split:(Ljava/lang/CharSequence;)[Ljava/lang/String;
   8:	areturn
  LineNumberTable: 
   line 129: 0

  LocalVariableTable: 
   Start  Length  Slot  Name   Signature
   0      9      0    this       Lscala/util/matching/Regex;
   0      9      1    toSplit       Ljava/lang/CharSequence;


public java.lang.String replaceFirstIn(java.lang.CharSequence, java.lang.String);
  Code:
   Stack=2, Locals=4, Args_size=3
   0:	aload_0
   1:	invokevirtual	#51; //Method pattern:()Ljava/util/regex/Pattern;
   4:	aload_1
   5:	invokevirtual	#61; //Method java/util/regex/Pattern.matcher:(Ljava/lang/CharSequence;)Ljava/util/regex/Matcher;
   8:	astore_3
   9:	aload_3
   10:	aload_2
   11:	invokevirtual	#67; //Method java/util/regex/Matcher.replaceFirst:(Ljava/lang/String;)Ljava/lang/String;
   14:	areturn
  LineNumberTable: 
   line 117: 0
   line 118: 9

  LocalVariableTable: 
   Start  Length  Slot  Name   Signature
   0      15      0    this       Lscala/util/matching/Regex;
   0      15      1    target       Ljava/lang/CharSequence;
   0      15      2    replacement       Ljava/lang/String;
   9      5      3    m       Ljava/util/regex/Matcher;


public java.lang.String replaceAllIn(java.lang.CharSequence, java.lang.String);
  Code:
   Stack=2, Locals=4, Args_size=3
   0:	aload_0
   1:	invokevirtual	#51; //Method pattern:()Ljava/util/regex/Pattern;
   4:	aload_1
   5:	invokevirtual	#61; //Method java/util/regex/Pattern.matcher:(Ljava/lang/CharSequence;)Ljava/util/regex/Matcher;
   8:	astore_3
   9:	aload_3
   10:	aload_2
   11:	invokevirtual	#75; //Method java/util/regex/Matcher.replaceAll:(Ljava/lang/String;)Ljava/lang/String;
   14:	areturn
  LineNumberTable: 
   line 106: 0
   line 107: 9

  LocalVariableTable: 
   Start  Length  Slot  Name   Signature
   0      15      0    this       Lscala/util/matching/Regex;
   0      15      1    target       Ljava/lang/CharSequence;
   0      15      2    replacement       Ljava/lang/String;
   9      5      3    m       Ljava/util/regex/Matcher;


public scala.Option findPrefixMatchOf(java.lang.CharSequence);
  Code:
   Stack=7, Locals=3, Args_size=2
   0:	aload_0
   1:	invokevirtual	#51; //Method pattern:()Ljava/util/regex/Pattern;
   4:	aload_1
   5:	invokevirtual	#61; //Method java/util/regex/Pattern.matcher:(Ljava/lang/CharSequence;)Ljava/util/regex/Matcher;
   8:	astore_2
   9:	aload_2
   10:	invokevirtual	#81; //Method java/util/regex/Matcher.lookingAt:()Z
   13:	ifeq	39
   16:	new	#83; //class scala/Some
   19:	dup
   20:	new	#85; //class scala/util/matching/Regex$Match
   23:	dup
   24:	aload_1
   25:	aload_2
   26:	aload_0
   27:	getfield	#28; //Field groupNames:Lscala/collection/Seq;
   30:	invokespecial	#88; //Method scala/util/matching/Regex$Match."<init>":(Ljava/lang/CharSequence;Ljava/util/regex/Matcher;Lscala/collection/Seq;)V
   33:	invokespecial	#91; //Method scala/Some."<init>":(Ljava/lang/Object;)V
   36:	goto	42
   39:	getstatic	#97; //Field scala/None$.MODULE$:Lscala/None$;
   42:	areturn
  LineNumberTable: 
   line 95: 0
   line 96: 9
   line 94: 42

  LocalVariableTable: 
   Start  Length  Slot  Name   Signature
   0      43      0    this       Lscala/util/matching/Regex;
   0      43      1    source       Ljava/lang/CharSequence;
   9      34      2    m       Ljava/util/regex/Matcher;

  Signature: length = 0x2
   00 63 

public scala.Option findPrefixOf(java.lang.CharSequence);
  Code:
   Stack=3, Locals=3, Args_size=2
   0:	aload_0
   1:	invokevirtual	#51; //Method pattern:()Ljava/util/regex/Pattern;
   4:	aload_1
   5:	invokevirtual	#61; //Method java/util/regex/Pattern.matcher:(Ljava/lang/CharSequence;)Ljava/util/regex/Matcher;
   8:	astore_2
   9:	aload_2
   10:	invokevirtual	#81; //Method java/util/regex/Matcher.lookingAt:()Z
   13:	ifeq	30
   16:	new	#83; //class scala/Some
   19:	dup
   20:	aload_2
   21:	invokevirtual	#103; //Method java/util/regex/Matcher.group:()Ljava/lang/String;
   24:	invokespecial	#91; //Method scala/Some."<init>":(Ljava/lang/Object;)V
   27:	goto	33
   30:	getstatic	#97; //Field scala/None$.MODULE$:Lscala/None$;
   33:	areturn
  LineNumberTable: 
   line 86: 0
   line 87: 9
   line 85: 33

  LocalVariableTable: 
   Start  Length  Slot  Name   Signature
   0      34      0    this       Lscala/util/matching/Regex;
   0      34      1    source       Ljava/lang/CharSequence;
   9      25      2    m       Ljava/util/regex/Matcher;

  Signature: length = 0x2
   00 68 

public scala.Option findFirstMatchIn(java.lang.CharSequence);
  Code:
   Stack=7, Locals=3, Args_size=2
   0:	aload_0
   1:	invokevirtual	#51; //Method pattern:()Ljava/util/regex/Pattern;
   4:	aload_1
   5:	invokevirtual	#61; //Method java/util/regex/Pattern.matcher:(Ljava/lang/CharSequence;)Ljava/util/regex/Matcher;
   8:	astore_2
   9:	aload_2
   10:	invokevirtual	#108; //Method java/util/regex/Matcher.find:()Z
   13:	ifeq	39
   16:	new	#83; //class scala/Some
   19:	dup
   20:	new	#85; //class scala/util/matching/Regex$Match
   23:	dup
   24:	aload_1
   25:	aload_2
   26:	aload_0
   27:	getfield	#28; //Field groupNames:Lscala/collection/Seq;
   30:	invokespecial	#88; //Method scala/util/matching/Regex$Match."<init>":(Ljava/lang/CharSequence;Ljava/util/regex/Matcher;Lscala/collection/Seq;)V
   33:	invokespecial	#91; //Method scala/Some."<init>":(Ljava/lang/Object;)V
   36:	goto	42
   39:	getstatic	#97; //Field scala/None$.MODULE$:Lscala/None$;
   42:	areturn
  LineNumberTable: 
   line 77: 0
   line 78: 9
   line 76: 42

  LocalVariableTable: 
   Start  Length  Slot  Name   Signature
   0      43      0    this       Lscala/util/matching/Regex;
   0      43      1    source       Ljava/lang/CharSequence;
   9      34      2    m       Ljava/util/regex/Matcher;

  Signature: length = 0x2
   00 63 

public scala.Option findFirstIn(java.lang.CharSequence);
  Code:
   Stack=3, Locals=3, Args_size=2
   0:	aload_0
   1:	invokevirtual	#51; //Method pattern:()Ljava/util/regex/Pattern;
   4:	aload_1
   5:	invokevirtual	#61; //Method java/util/regex/Pattern.matcher:(Ljava/lang/CharSequence;)Ljava/util/regex/Matcher;
   8:	astore_2
   9:	aload_2
   10:	invokevirtual	#108; //Method java/util/regex/Matcher.find:()Z
   13:	ifeq	30
   16:	new	#83; //class scala/Some
   19:	dup
   20:	aload_2
   21:	invokevirtual	#103; //Method java/util/regex/Matcher.group:()Ljava/lang/String;
   24:	invokespecial	#91; //Method scala/Some."<init>":(Ljava/lang/Object;)V
   27:	goto	33
   30:	getstatic	#97; //Field scala/None$.MODULE$:Lscala/None$;
   33:	areturn
  LineNumberTable: 
   line 69: 0
   line 70: 9
   line 68: 33

  LocalVariableTable: 
   Start  Length  Slot  Name   Signature
   0      34      0    this       Lscala/util/matching/Regex;
   0      34      1    source       Ljava/lang/CharSequence;
   9      25      2    m       Ljava/util/regex/Matcher;

  Signature: length = 0x2
   00 68 

public scala.util.matching.Regex$MatchIterator findAllIn(java.lang.CharSequence);
  Code:
   Stack=5, Locals=2, Args_size=2
   0:	new	#113; //class scala/util/matching/Regex$MatchIterator
   3:	dup
   4:	aload_1
   5:	aload_0
   6:	aload_0
   7:	getfield	#28; //Field groupNames:Lscala/collection/Seq;
   10:	invokespecial	#116; //Method scala/util/matching/Regex$MatchIterator."<init>":(Ljava/lang/CharSequence;Lscala/util/matching/Regex;Lscala/collection/Seq;)V
   13:	areturn
  LineNumberTable: 
   line 63: 0

  LocalVariableTable: 
   Start  Length  Slot  Name   Signature
   0      14      0    this       Lscala/util/matching/Regex;
   0      14      1    source       Ljava/lang/CharSequence;


public scala.Option unapplySeq(java.lang.Object);
  Code:
   Stack=7, Locals=10, Args_size=2
   0:	aload_1
   1:	instanceof	#120; //class java/lang/CharSequence
   4:	ifeq	115
   7:	aload_1
   8:	checkcast	#120; //class java/lang/CharSequence
   11:	astore_2
   12:	iconst_1
   13:	ifeq	103
   16:	aload_0
   17:	invokevirtual	#51; //Method pattern:()Ljava/util/regex/Pattern;
   20:	aload_2
   21:	invokevirtual	#61; //Method java/util/regex/Pattern.matcher:(Ljava/lang/CharSequence;)Ljava/util/regex/Matcher;
   24:	astore	5
   26:	aload	5
   28:	invokevirtual	#123; //Method java/util/regex/Matcher.matches:()Z
   31:	ifeq	97
   34:	new	#83; //class scala/Some
   37:	dup
   38:	aload	5
   40:	invokevirtual	#127; //Method java/util/regex/Matcher.groupCount:()I
   43:	istore	4
   45:	iconst_1
   46:	istore_3
   47:	new	#129; //class scala/collection/immutable/Range$$anon$1
   50:	dup
   51:	iload_3
   52:	iload	4
   54:	invokespecial	#132; //Method scala/collection/immutable/Range$$anon$1."<init>":(II)V
   57:	invokeinterface	#138,  1; //InterfaceMethod scala/collection/TraversableLike.toList:()Lscala/collection/immutable/List;
   62:	new	#140; //class scala/util/matching/Regex$$anonfun$unapplySeq$1
   65:	dup
   66:	aload_0
   67:	aload	5
   69:	invokespecial	#143; //Method scala/util/matching/Regex$$anonfun$unapplySeq$1."<init>":(Lscala/util/matching/Regex;Ljava/util/regex/Matcher;)V
   72:	getstatic	#148; //Field scala/collection/immutable/List$.MODULE$:Lscala/collection/immutable/List$;
   75:	astore	6
   77:	new	#150; //class scala/collection/generic/TraversableFactory$GenericCanBuildFrom
   80:	dup
   81:	aload	6
   83:	invokespecial	#153; //Method scala/collection/generic/TraversableFactory$GenericCanBuildFrom."<init>":(Lscala/collection/generic/TraversableFactory;)V
   86:	invokeinterface	#157,  3; //InterfaceMethod scala/collection/TraversableLike.map:(Lscala/Function1;Lscala/collection/generic/CanBuildFrom;)Ljava/lang/Object;
   91:	invokespecial	#91; //Method scala/Some."<init>":(Ljava/lang/Object;)V
   94:	goto	206
   97:	getstatic	#97; //Field scala/None$.MODULE$:Lscala/None$;
   100:	goto	206
   103:	new	#159; //class scala/MatchError
   106:	dup
   107:	aload_1
   108:	invokevirtual	#161; //Method java/lang/Object.toString:()Ljava/lang/String;
   111:	invokespecial	#164; //Method scala/MatchError."<init>":(Ljava/lang/String;)V
   114:	athrow
   115:	aload_1
   116:	instanceof	#85; //class scala/util/matching/Regex$Match
   119:	ifeq	199
   122:	aload_1
   123:	checkcast	#85; //class scala/util/matching/Regex$Match
   126:	astore	7
   128:	new	#83; //class scala/Some
   131:	dup
   132:	aload	7
   134:	invokeinterface	#169,  1; //InterfaceMethod scala/util/matching/Regex$MatchData.matched:()Ljava/lang/String;
   139:	invokespecial	#91; //Method scala/Some."<init>":(Ljava/lang/Object;)V
   142:	astore	8
   144:	iconst_1
   145:	ifeq	183
   148:	aload	8
   150:	getfield	#173; //Field scala/Some.x:Ljava/lang/Object;
   153:	checkcast	#175; //class java/lang/String
   156:	astore	9
   158:	iconst_1
   159:	ifeq	171
   162:	aload_0
   163:	aload	9
   165:	invokevirtual	#177; //Method unapplySeq:(Ljava/lang/Object;)Lscala/Option;
   168:	goto	206
   171:	new	#159; //class scala/MatchError
   174:	dup
   175:	aload_1
   176:	invokevirtual	#161; //Method java/lang/Object.toString:()Ljava/lang/String;
   179:	invokespecial	#164; //Method scala/MatchError."<init>":(Ljava/lang/String;)V
   182:	athrow
   183:	iconst_1
   184:	ifne	203
   187:	new	#159; //class scala/MatchError
   190:	dup
   191:	aload_1
   192:	invokevirtual	#161; //Method java/lang/Object.toString:()Ljava/lang/String;
   195:	invokespecial	#164; //Method scala/MatchError."<init>":(Ljava/lang/String;)V
   198:	athrow
   199:	iconst_1
   200:	ifeq	207
   203:	getstatic	#97; //Field scala/None$.MODULE$:Lscala/None$;
   206:	areturn
   207:	new	#159; //class scala/MatchError
   210:	dup
   211:	aload_1
   212:	invokevirtual	#161; //Method java/lang/Object.toString:()Ljava/lang/String;
   215:	invokespecial	#164; //Method scala/MatchError."<init>":(Ljava/lang/String;)V
   218:	athrow
  LineNumberTable: 
   line 50: 0
   line 21: 12
   line 52: 16
   line 53: 26
   line 54: 97
   line 53: 100
   line 50: 103
   line 21: 144
   line 50: 148
   line 21: 158
   line 56: 162
   line 50: 171
   line 21: 183
   line 50: 187
   line 21: 199
   line 58: 203
   line 50: 206

  LocalVariableTable: 
   Start  Length  Slot  Name   Signature
   0      219      0    this       Lscala/util/matching/Regex;
   0      219      1    target       Ljava/lang/Object;
   12      103      2    temp2       Ljava/lang/CharSequence;
   26      77      5    m$1       Ljava/util/regex/Matcher;
   128      71      7    temp3       Lscala/util/matching/Regex$Match;
   203      3      7    temp3       Lscala/util/matching/Regex$Match;
   144      55      8    temp4       Lscala/Some;
   203      3      8    temp4       Lscala/Some;
   158      25      9    temp5       Ljava/lang/String;

  Signature: length = 0x2
   00 FFFFFFB9 

public java.util.regex.Pattern pattern();
  Code:
   Stack=1, Locals=1, Args_size=1
   0:	aload_0
   1:	getfield	#40; //Field pattern:Ljava/util/regex/Pattern;
   4:	areturn
  LineNumberTable: 
   line 42: 0


}

