Compiled from "Document.scala"
public class scala.text.DocCons extends scala.text.Document implements scala.ScalaObject,scala.Product,java.io.Serializable
  SourceFile: "Document.scala"
  ScalaSig: length = 0x390
   05 00 FFFFFF81 07 06 08 01 02 FFFFFF84 FFFFFF80 FFFFFF80 FFFFFF80 40 07 02 07
   44 6F 63 43 6F 6E 73 0A 02 03 04 01 04 74 65 78
   74 0A 01 05 01 05 73 63 61 6C 61 03 00 13 04 00
   08 0C 10 10 02 09 0A 0D 01 02 09 02 0B 02 02 08
   44 6F 63 75 6D 65 6E 74 10 02 0D 0E 0D 01 04 09
   02 0F 04 02 0B 53 63 61 6C 61 4F 62 6A 65 63 74
   10 02 0D 11 09 02 12 04 02 07 50 72 6F 64 75 63
   74 08 08 14 00 FFFFFF82 FFFFFFCA FFFFFF80 FFFFFF84 00 15 01 02 68 64 15
   01 08 08 08 17 00 FFFFFF82 FFFFFF88 FFFFFFA0 FFFFFF80 04 08 01 03 68 64
   20 08 08 19 00 FFFFFF82 FFFFFFCA FFFFFF80 FFFFFF84 00 15 01 02 74 6C 08
   08 1B 00 FFFFFF82 FFFFFF88 FFFFFFA0 FFFFFF80 04 08 01 03 74 6C 20 08 05
   1D 00 FFFFFF84 00 1E 01 06 3C 69 6E 69 74 3E 14 03 1F
   20 21 10 02 09 00 08 05 14 1C FFFFFFC0 00 08 08 05 19
   1C FFFFFFC0 00 08 08 07 23 00 FFFFFF81 FFFFFF80 FFFFFF84 00 24 01 04 63
   6F 70 79 14 03 1F 25 33 08 08 26 14 22 FFFFFF90 FFFFFF80 FFFFFFC0
   00 08 08 07 27 00 FFFFFF91 FFFFFF80 FFFFFF84 00 28 01 0E 63 6F 70
   79 24 64 65 66 61 75 6C 74 24 31 15 01 29 2A 02
   08 2A 2B 01 2B 10 02 2C 31 0D 01 2D 0A 02 2E 2F
   01 09 75 6E 63 68 65 63 6B 65 64 0A 02 30 04 01
   0A 61 6E 6E 6F 74 61 74 69 6F 6E 09 02 32 2D 02
   11 75 6E 63 68 65 63 6B 65 64 56 61 72 69 61 6E
   63 65 08 08 34 19 22 FFFFFF90 FFFFFF80 FFFFFFC0 00 08 08 07 35 00
   FFFFFF91 FFFFFF80 FFFFFF84 00 28 01 0E 63 6F 70 79 24 64 65 66 61
   75 6C 74 24 32 08 08 37 00 FFFFFF84 FFFFFF80 FFFFFF80 FFFFFF84 20 38 01
   08 68 61 73 68 43 6F 64 65 14 01 39 10 02 0D 3A
   09 02 3B 04 02 03 49 6E 74 08 08 3D 00 FFFFFF84 FFFFFF80 FFFFFF80
   FFFFFF84 20 3E 01 08 74 6F 53 74 72 69 6E 67 14 01 3F
   10 02 40 43 0E 02 0D 41 09 02 42 04 01 06 50 72
   65 64 65 66 09 02 44 45 02 06 53 74 72 69 6E 67
   0A 02 42 04 08 08 47 00 FFFFFF84 FFFFFF80 FFFFFF80 FFFFFF84 20 48 01 06
   65 71 75 61 6C 73 14 02 49 4C 10 02 0D 4A 09 02
   4B 04 02 07 42 6F 6F 6C 65 61 6E 08 07 4D 46 FFFFFF81
   FFFFFF80 FFFFFFC0 00 4E 01 03 78 24 31 10 02 0D 4F 09 02 50
   04 02 03 41 6E 79 08 08 52 00 FFFFFF84 FFFFFF80 FFFFFF80 FFFFFF84 20 53
   01 0D 70 72 6F 64 75 63 74 50 72 65 66 69 78 15
   01 54 10 02 55 5A 0D 01 56 0A 02 57 58 01 04 6C
   61 6E 67 0A 01 59 01 04 6A 61 76 61 09 02 44 56
   08 08 5C 00 FFFFFF84 FFFFFF80 FFFFFF80 FFFFFF84 20 5D 01 0C 70 72 6F 64
   75 63 74 41 72 69 74 79 15 01 39 08 08 5F 00 FFFFFF84
   FFFFFF80 FFFFFF80 FFFFFF84 20 60 01 0E 70 72 6F 64 75 63 74 45 6C
   65 6D 65 6E 74 14 02 4E 61 08 07 4D 5E FFFFFF81 FFFFFF80 FFFFFFC0
   00 39 08 08 63 00 FFFFFF84 FFFFFF80 FFFFFF80 FFFFFF84 20 64 01 08 63 61
   6E 45 71 75 61 6C 14 02 49 65 08 07 4D 62 FFFFFF81 FFFFFF80
   FFFFFFC0 00 4E 28 02 00 67 10 02 0D 68 09 02 69 04 02
   0C 73 65 72 69 61 6C 69 7A 61 62 6C 65 07 07 6B
   02 FFFFFF81 FFFFFF80 FFFFFF88 02 6C 01 07 44 6F 63 43 6F 6E 73 10
   02 09 6D 06 08 01 02 FFFFFF84 FFFFFF81 FFFFFF80 FFFFFF88 02 6E 13 04 6D
   6F 72 0C 10 02 55 70 09 02 71 56 02 06 4F 62 6A
   65 63 74 10 05 0D 73 08 08 1F 09 02 74 04 02 09
   46 75 6E 63 74 69 6F 6E 32 08 05 1D 6D FFFFFF84 00 76
   14 01 6C 08 07 78 6D FFFFFF81 FFFFFF80 FFFFFF84 40 79 01 05 61 70
   70 6C 79 14 03 1F 7A 7B 08 05 14 77 FFFFFFC0 00 08 08
   05 19 77 FFFFFFC0 00 08 08 07 7D 6D FFFFFF81 FFFFFF80 FFFFFF84 40 7E 01
   07 75 6E 61 70 70 6C 79 14 03 7F FFFFFF81 05 10 05 0D
   FFFFFF81 00 FFFFFF81 02 09 03 FFFFFF81 01 04 02 04 53 6F 6D 65 10
   05 0D FFFFFF81 03 08 08 09 03 FFFFFF81 04 04 02 06 54 75 70
   6C 65 32 08 06 FFFFFF81 06 7C FFFFFFC0 00 1F 01 03 78 24 30
   
  minor version: 0
  major version: 49
  Constant pool:
const #1 = Asciz	SourceFile;
const #2 = Asciz	Document.scala;
const #3 = Asciz	tuple;
const #4 = Asciz	()Lscala/Function1;;
const #5 = Asciz	Code;
const #6 = Asciz	scala/text/DocCons$;
const #7 = class	#6;	//  scala/text/DocCons$
const #8 = Asciz	MODULE$;
const #9 = Asciz	Lscala/text/DocCons$;;
const #10 = NameAndType	#8:#9;//  MODULE$:Lscala/text/DocCons$;
const #11 = Field	#7.#10;	//  scala/text/DocCons$.MODULE$:Lscala/text/DocCons$;
const #12 = NameAndType	#3:#4;//  tuple:()Lscala/Function1;
const #13 = Method	#7.#12;	//  scala/text/DocCons$.tuple:()Lscala/Function1;
const #14 = Asciz	curry;
const #15 = NameAndType	#14:#4;//  curry:()Lscala/Function1;
const #16 = Method	#7.#15;	//  scala/text/DocCons$.curry:()Lscala/Function1;
const #17 = Asciz	tl;
const #18 = Asciz	Lscala/text/Document;;
const #19 = Asciz	hd;
const #20 = Asciz	<init>;
const #21 = Asciz	(Lscala/text/Document;Lscala/text/Document;)V;
const #22 = Asciz	LineNumberTable;
const #23 = Asciz	scala/text/DocCons;
const #24 = class	#23;	//  scala/text/DocCons
const #25 = NameAndType	#19:#18;//  hd:Lscala/text/Document;
const #26 = Field	#24.#25;	//  scala/text/DocCons.hd:Lscala/text/Document;
const #27 = NameAndType	#17:#18;//  tl:Lscala/text/Document;
const #28 = Field	#24.#27;	//  scala/text/DocCons.tl:Lscala/text/Document;
const #29 = Asciz	scala/text/Document;
const #30 = class	#29;	//  scala/text/Document
const #31 = Asciz	()V;
const #32 = NameAndType	#20:#31;//  "<init>":()V
const #33 = Method	#30.#32;	//  scala/text/Document."<init>":()V
const #34 = Asciz	scala/Product$class;
const #35 = class	#34;	//  scala/Product$class
const #36 = Asciz	$init$;
const #37 = Asciz	(Lscala/Product;)V;
const #38 = NameAndType	#36:#37;//  $init$:(Lscala/Product;)V
const #39 = Method	#35.#38;	//  scala/Product$class.$init$:(Lscala/Product;)V
const #40 = Asciz	this;
const #41 = Asciz	Lscala/text/DocCons;;
const #42 = Asciz	LocalVariableTable;
const #43 = Asciz	gd4$1;
const #44 = Asciz	(Lscala/text/Document;Lscala/text/Document;)Z;
const #45 = Asciz	()Lscala/text/Document;;
const #46 = NameAndType	#19:#45;//  hd:()Lscala/text/Document;
const #47 = Method	#24.#46;	//  scala/text/DocCons.hd:()Lscala/text/Document;
const #48 = Asciz	java/lang/Object;
const #49 = class	#48;	//  java/lang/Object
const #50 = Asciz	equals;
const #51 = Asciz	(Ljava/lang/Object;)Z;
const #52 = NameAndType	#50:#51;//  equals:(Ljava/lang/Object;)Z
const #53 = Method	#49.#52;	//  java/lang/Object.equals:(Ljava/lang/Object;)Z
const #54 = NameAndType	#17:#45;//  tl:()Lscala/text/Document;
const #55 = Method	#24.#54;	//  scala/text/DocCons.tl:()Lscala/text/Document;
const #56 = Asciz	canEqual;
const #57 = Asciz	productElement;
const #58 = Asciz	(I)Ljava/lang/Object;;
const #59 = Asciz	java/lang/IndexOutOfBoundsException;
const #60 = class	#59;	//  java/lang/IndexOutOfBoundsException
const #61 = Asciz	scala/runtime/BoxesRunTime;
const #62 = class	#61;	//  scala/runtime/BoxesRunTime
const #63 = Asciz	boxToInteger;
const #64 = Asciz	(I)Ljava/lang/Integer;;
const #65 = NameAndType	#63:#64;//  boxToInteger:(I)Ljava/lang/Integer;
const #66 = Method	#62.#65;	//  scala/runtime/BoxesRunTime.boxToInteger:(I)Ljava/lang/Integer;
const #67 = Asciz	toString;
const #68 = Asciz	()Ljava/lang/String;;
const #69 = NameAndType	#67:#68;//  toString:()Ljava/lang/String;
const #70 = Method	#49.#69;	//  java/lang/Object.toString:()Ljava/lang/String;
const #71 = Asciz	(Ljava/lang/String;)V;
const #72 = NameAndType	#20:#71;//  "<init>":(Ljava/lang/String;)V
const #73 = Method	#60.#72;	//  java/lang/IndexOutOfBoundsException."<init>":(Ljava/lang/String;)V
const #74 = Asciz	scala/MatchError;
const #75 = class	#74;	//  scala/MatchError
const #76 = Method	#75.#72;	//  scala/MatchError."<init>":(Ljava/lang/String;)V
const #77 = Asciz	productArity;
const #78 = Asciz	()I;
const #79 = Asciz	productPrefix;
const #80 = Asciz	DocCons;
const #81 = String	#80;	//  DocCons
const #82 = NameAndType	#43:#44;//  gd4$1:(Lscala/text/Document;Lscala/text/Document;)Z
const #83 = Method	#24.#82;	//  scala/text/DocCons.gd4$1:(Lscala/text/Document;Lscala/text/Document;)Z
const #84 = Asciz	scala/Equals;
const #85 = class	#84;	//  scala/Equals
const #86 = NameAndType	#56:#51;//  canEqual:(Ljava/lang/Object;)Z
const #87 = InterfaceMethod	#85.#86;	//  scala/Equals.canEqual:(Ljava/lang/Object;)Z
const #88 = Asciz	temp17;
const #89 = Asciz	temp18;
const #90 = Asciz	temp19;
const #91 = Asciz	scala/runtime/ScalaRunTime$;
const #92 = class	#91;	//  scala/runtime/ScalaRunTime$
const #93 = Asciz	Lscala/runtime/ScalaRunTime$;;
const #94 = NameAndType	#8:#93;//  MODULE$:Lscala/runtime/ScalaRunTime$;
const #95 = Field	#92.#94;	//  scala/runtime/ScalaRunTime$.MODULE$:Lscala/runtime/ScalaRunTime$;
const #96 = Asciz	_toString;
const #97 = Asciz	(Lscala/Product;)Ljava/lang/String;;
const #98 = NameAndType	#96:#97;//  _toString:(Lscala/Product;)Ljava/lang/String;
const #99 = Method	#92.#98;	//  scala/runtime/ScalaRunTime$._toString:(Lscala/Product;)Ljava/lang/String;
const #100 = Asciz	hashCode;
const #101 = Asciz	_hashCode;
const #102 = Asciz	(Lscala/Product;)I;
const #103 = NameAndType	#101:#102;//  _hashCode:(Lscala/Product;)I
const #104 = Method	#92.#103;	//  scala/runtime/ScalaRunTime$._hashCode:(Lscala/Product;)I
const #105 = Asciz	copy;
const #106 = Asciz	(Lscala/text/Document;Lscala/text/Document;)Lscala/text/DocCons;;
const #107 = NameAndType	#20:#21;//  "<init>":(Lscala/text/Document;Lscala/text/Document;)V
const #108 = Method	#24.#107;	//  scala/text/DocCons."<init>":(Lscala/text/Document;Lscala/text/Document;)V
const #109 = Asciz	copy$default$1;
const #110 = Asciz	copy$default$2;
const #111 = Asciz	productElements;
const #112 = Asciz	()Lscala/collection/Iterator;;
const #113 = Asciz	(Lscala/Product;)Lscala/collection/Iterator;;
const #114 = NameAndType	#111:#113;//  productElements:(Lscala/Product;)Lscala/collection/Iterator;
const #115 = Method	#35.#114;	//  scala/Product$class.productElements:(Lscala/Product;)Lscala/collection/Iterator;
const #116 = Asciz	Deprecated;
const #117 = Asciz	productIterator;
const #118 = NameAndType	#117:#113;//  productIterator:(Lscala/Product;)Lscala/collection/Iterator;
const #119 = Method	#35.#118;	//  scala/Product$class.productIterator:(Lscala/Product;)Lscala/collection/Iterator;
const #120 = Asciz	ScalaSig;
const #121 = Asciz	scala/ScalaObject;
const #122 = class	#121;	//  scala/ScalaObject
const #123 = Asciz	scala/Product;
const #124 = class	#123;	//  scala/Product
const #125 = Asciz	java/io/Serializable;
const #126 = class	#125;	//  java/io/Serializable

{
public static final scala.Function1 tuple();
  Code:
   Stack=1, Locals=0, Args_size=0
   0:	getstatic	#11; //Field scala/text/DocCons$.MODULE$:Lscala/text/DocCons$;
   3:	invokevirtual	#13; //Method scala/text/DocCons$.tuple:()Lscala/Function1;
   6:	areturn

public static final scala.Function1 curry();
  Code:
   Stack=1, Locals=0, Args_size=0
   0:	getstatic	#11; //Field scala/text/DocCons$.MODULE$:Lscala/text/DocCons$;
   3:	invokevirtual	#16; //Method scala/text/DocCons$.curry:()Lscala/Function1;
   6:	areturn

public scala.text.DocCons(scala.text.Document, scala.text.Document);
  Code:
   Stack=2, Locals=3, Args_size=3
   0:	aload_0
   1:	aload_1
   2:	putfield	#26; //Field hd:Lscala/text/Document;
   5:	aload_0
   6:	aload_2
   7:	putfield	#28; //Field tl:Lscala/text/Document;
   10:	aload_0
   11:	invokespecial	#33; //Method scala/text/Document."<init>":()V
   14:	aload_0
   15:	invokestatic	#39; //Method scala/Product$class.$init$:(Lscala/Product;)V
   18:	return
  LineNumberTable: 
   line 22: 0

  LocalVariableTable: 
   Start  Length  Slot  Name   Signature
   0      19      0    this       Lscala/text/DocCons;
   0      19      1    hd       Lscala/text/Document;
   0      19      2    tl       Lscala/text/Document;


public boolean canEqual(java.lang.Object);
  Code:
   Stack=1, Locals=2, Args_size=2
   0:	aload_1
   1:	instanceof	#24; //class scala/text/DocCons
   4:	ireturn
  LineNumberTable: 
   line 22: 0


public java.lang.Object productElement(int);
  Code:
   Stack=3, Locals=2, Args_size=2
   0:	iload_1
   1:	tableswitch{ //0 to 1
		0: 84;
		1: 58;
		default: 24 }
   24:	iconst_1
   25:	ifeq	43
   28:	new	#60; //class java/lang/IndexOutOfBoundsException
   31:	dup
   32:	iload_1
   33:	invokestatic	#66; //Method scala/runtime/BoxesRunTime.boxToInteger:(I)Ljava/lang/Integer;
   36:	invokevirtual	#70; //Method java/lang/Object.toString:()Ljava/lang/String;
   39:	invokespecial	#73; //Method java/lang/IndexOutOfBoundsException."<init>":(Ljava/lang/String;)V
   42:	athrow
   43:	new	#75; //class scala/MatchError
   46:	dup
   47:	iload_1
   48:	invokestatic	#66; //Method scala/runtime/BoxesRunTime.boxToInteger:(I)Ljava/lang/Integer;
   51:	invokevirtual	#70; //Method java/lang/Object.toString:()Ljava/lang/String;
   54:	invokespecial	#76; //Method scala/MatchError."<init>":(Ljava/lang/String;)V
   57:	athrow
   58:	iconst_1
   59:	ifeq	69
   62:	aload_0
   63:	invokevirtual	#55; //Method tl:()Lscala/text/Document;
   66:	goto	92
   69:	new	#75; //class scala/MatchError
   72:	dup
   73:	iload_1
   74:	invokestatic	#66; //Method scala/runtime/BoxesRunTime.boxToInteger:(I)Ljava/lang/Integer;
   77:	invokevirtual	#70; //Method java/lang/Object.toString:()Ljava/lang/String;
   80:	invokespecial	#76; //Method scala/MatchError."<init>":(Ljava/lang/String;)V
   83:	athrow
   84:	iconst_1
   85:	ifeq	93
   88:	aload_0
   89:	invokevirtual	#47; //Method hd:()Lscala/text/Document;
   92:	areturn
   93:	new	#75; //class scala/MatchError
   96:	dup
   97:	iload_1
   98:	invokestatic	#66; //Method scala/runtime/BoxesRunTime.boxToInteger:(I)Ljava/lang/Integer;
   101:	invokevirtual	#70; //Method java/lang/Object.toString:()Ljava/lang/String;
   104:	invokespecial	#76; //Method scala/MatchError."<init>":(Ljava/lang/String;)V
   107:	athrow
  LineNumberTable: 
   line 22: 0
   line 21: 24
   line 22: 28
   line 21: 58
   line 22: 62
   line 21: 84
   line 22: 88


public int productArity();
  Code:
   Stack=1, Locals=1, Args_size=1
   0:	iconst_2
   1:	ireturn
  LineNumberTable: 
   line 22: 0


public java.lang.String productPrefix();
  Code:
   Stack=1, Locals=1, Args_size=1
   0:	ldc	#81; //String DocCons
   2:	areturn
  LineNumberTable: 
   line 22: 0


public boolean equals(java.lang.Object);
  Code:
   Stack=3, Locals=5, Args_size=2
   0:	aload_0
   1:	aload_1
   2:	if_acmpeq	79
   5:	aload_1
   6:	instanceof	#24; //class scala/text/DocCons
   9:	ifeq	71
   12:	aload_1
   13:	checkcast	#24; //class scala/text/DocCons
   16:	astore_2
   17:	aload_2
   18:	invokevirtual	#47; //Method hd:()Lscala/text/Document;
   21:	astore_3
   22:	aload_2
   23:	invokevirtual	#55; //Method tl:()Lscala/text/Document;
   26:	astore	4
   28:	aload_0
   29:	aload_3
   30:	aload	4
   32:	invokespecial	#83; //Method gd4$1:(Lscala/text/Document;Lscala/text/Document;)Z
   35:	ifeq	51
   38:	aload_1
   39:	checkcast	#24; //class scala/text/DocCons
   42:	aload_0
   43:	invokeinterface	#87,  2; //InterfaceMethod scala/Equals.canEqual:(Ljava/lang/Object;)Z
   48:	goto	76
   51:	iconst_1
   52:	ifeq	59
   55:	iconst_0
   56:	goto	76
   59:	new	#75; //class scala/MatchError
   62:	dup
   63:	aload_1
   64:	invokevirtual	#70; //Method java/lang/Object.toString:()Ljava/lang/String;
   67:	invokespecial	#76; //Method scala/MatchError."<init>":(Ljava/lang/String;)V
   70:	athrow
   71:	iconst_1
   72:	ifeq	85
   75:	iconst_0
   76:	ifeq	83
   79:	iconst_1
   80:	goto	84
   83:	iconst_0
   84:	ireturn
   85:	new	#75; //class scala/MatchError
   88:	dup
   89:	aload_1
   90:	invokevirtual	#70; //Method java/lang/Object.toString:()Ljava/lang/String;
   93:	invokespecial	#76; //Method scala/MatchError."<init>":(Ljava/lang/String;)V
   96:	athrow
  LineNumberTable: 
   line 22: 0
   line 21: 51
   line 22: 59
   line 21: 71
   line 22: 76

  LocalVariableTable: 
   Start  Length  Slot  Name   Signature
   0      97      0    this       Lscala/text/DocCons;
   17      54      2    temp17       Lscala/text/DocCons;
   22      49      3    temp18       Lscala/text/Document;
   28      43      4    temp19       Lscala/text/Document;


public java.lang.String toString();
  Code:
   Stack=2, Locals=1, Args_size=1
   0:	getstatic	#95; //Field scala/runtime/ScalaRunTime$.MODULE$:Lscala/runtime/ScalaRunTime$;
   3:	aload_0
   4:	invokevirtual	#99; //Method scala/runtime/ScalaRunTime$._toString:(Lscala/Product;)Ljava/lang/String;
   7:	areturn
  LineNumberTable: 
   line 22: 0


public int hashCode();
  Code:
   Stack=2, Locals=1, Args_size=1
   0:	getstatic	#95; //Field scala/runtime/ScalaRunTime$.MODULE$:Lscala/runtime/ScalaRunTime$;
   3:	aload_0
   4:	invokevirtual	#104; //Method scala/runtime/ScalaRunTime$._hashCode:(Lscala/Product;)I
   7:	ireturn
  LineNumberTable: 
   line 22: 0


public scala.text.DocCons copy(scala.text.Document, scala.text.Document);
  Code:
   Stack=4, Locals=3, Args_size=3
   0:	new	#24; //class scala/text/DocCons
   3:	dup
   4:	aload_1
   5:	aload_2
   6:	invokespecial	#108; //Method "<init>":(Lscala/text/Document;Lscala/text/Document;)V
   9:	areturn
  LineNumberTable: 
   line 22: 0

  LocalVariableTable: 
   Start  Length  Slot  Name   Signature
   0      10      0    this       Lscala/text/DocCons;
   0      10      1    hd       Lscala/text/Document;
   0      10      2    tl       Lscala/text/Document;


public scala.text.Document tl();
  Code:
   Stack=1, Locals=1, Args_size=1
   0:	aload_0
   1:	getfield	#28; //Field tl:Lscala/text/Document;
   4:	areturn
  LineNumberTable: 
   line 22: 0


public scala.text.Document hd();
  Code:
   Stack=1, Locals=1, Args_size=1
   0:	aload_0
   1:	getfield	#26; //Field hd:Lscala/text/Document;
   4:	areturn
  LineNumberTable: 
   line 22: 0


public scala.text.Document copy$default$1();
  Code:
   Stack=1, Locals=1, Args_size=1
   0:	aload_0
   1:	invokevirtual	#47; //Method hd:()Lscala/text/Document;
   4:	areturn
  LineNumberTable: 
   line 22: 0


public scala.text.Document copy$default$2();
  Code:
   Stack=1, Locals=1, Args_size=1
   0:	aload_0
   1:	invokevirtual	#55; //Method tl:()Lscala/text/Document;
   4:	areturn
  LineNumberTable: 
   line 22: 0


public scala.collection.Iterator productElements();
  Code:
   Stack=1, Locals=1, Args_size=1
   0:	aload_0
   1:	invokestatic	#115; //Method scala/Product$class.productElements:(Lscala/Product;)Lscala/collection/Iterator;
   4:	areturn
  LineNumberTable: 
   line 22: 0

  Deprecated: true

public scala.collection.Iterator productIterator();
  Code:
   Stack=1, Locals=1, Args_size=1
   0:	aload_0
   1:	invokestatic	#119; //Method scala/Product$class.productIterator:(Lscala/Product;)Lscala/collection/Iterator;
   4:	areturn
  LineNumberTable: 
   line 22: 0


}

