Compiled from "RichLong.scala"
public final class scala.runtime.RichLong extends java.lang.Object implements scala.Proxy,scala.math.Ordered,scala.ScalaObject
  SourceFile: "RichLong.scala"
  Signature: length = 0x2
   00 7E 
  ScalaSig: length = 0x316
   05 00 7F 06 08 01 02 FFFFFF84 FFFFFF80 FFFFFF80 FFFFFF80 02 07 02 08 52
   69 63 68 4C 6F 6E 67 0A 02 03 04 01 07 72 75 6E
   74 69 6D 65 0A 01 05 01 05 73 63 61 6C 61 03 00
   13 05 00 08 10 14 23 10 02 09 0E 0D 01 0A 0A 02
   0B 0C 01 04 6C 61 6E 67 0A 01 0D 01 04 6A 61 76
   61 09 02 0F 0A 02 06 4F 62 6A 65 63 74 10 02 11
   12 0D 01 04 09 02 13 04 02 05 50 72 6F 78 79 10
   03 15 1D 20 0E 02 16 1B 0E 02 17 1A 0D 01 18 0A
   02 19 06 01 06 3C 72 6F 6F 74 3E 09 01 05 09 02
   1C 04 01 07 70 61 63 6B 61 67 65 09 02 1E 1F 02
   07 4F 72 64 65 72 65 64 0A 02 1C 04 10 02 11 21
   09 02 22 04 02 04 4C 6F 6E 67 10 02 11 24 09 02
   25 04 02 0B 53 63 61 6C 61 4F 62 6A 65 63 74 08
   08 27 00 FFFFFF82 FFFFFF80 FFFFFFA0 FFFFFF80 04 20 01 01 78 08 05 29 00
   FFFFFF84 00 2A 01 06 3C 69 6E 69 74 3E 14 02 2B 2D 10
   02 2C 00 0D 01 02 08 05 27 28 FFFFFFC0 00 20 08 05 2F
   00 FFFFFF84 00 30 01 04 73 65 6C 66 15 01 31 10 02 11
   32 09 02 33 04 02 03 41 6E 79 08 05 35 00 FFFFFF84 00
   36 01 07 63 6F 6D 70 61 72 65 14 02 37 3A 10 02
   11 38 09 02 39 04 02 03 49 6E 74 08 05 3B 34 FFFFFFC0
   00 20 01 01 79 08 05 3D 00 FFFFFF84 00 3E 01 05 75 6E
   74 69 6C 14 03 3F 4B 4D 10 03 40 48 20 0E 02 41
   46 0D 01 42 0A 02 43 44 01 09 69 6D 6D 75 74 61
   62 6C 65 0A 02 45 04 01 0A 63 6F 6C 6C 65 63 74
   69 6F 6E 09 02 47 42 01 0C 4E 75 6D 65 72 69 63
   52 61 6E 67 65 09 02 49 4A 02 09 45 78 63 6C 75
   73 69 76 65 0A 02 47 42 08 05 4C 3C FFFFFFC0 00 20 01
   03 65 6E 64 08 08 4F 4E 3C FFFFFF90 FFFFFF80 FFFFFFC0 00 20 01 04
   73 74 65 70 08 07 50 00 FFFFFF91 FFFFFF80 FFFFFF84 00 51 01 0F 75
   6E 74 69 6C 24 64 65 66 61 75 6C 74 24 32 15 01
   52 2A 02 20 53 2B 01 54 10 02 55 5A 0D 01 56 0A
   02 57 58 01 09 75 6E 63 68 65 63 6B 65 64 0A 02
   59 04 01 0A 61 6E 6E 6F 74 61 74 69 6F 6E 09 02
   5B 56 02 11 75 6E 63 68 65 63 6B 65 64 56 61 72
   69 61 6E 63 65 08 05 5D 00 FFFFFF84 00 5E 01 02 74 6F
   14 03 5F 62 63 10 03 40 60 20 09 02 61 4A 02 09
   49 6E 63 6C 75 73 69 76 65 08 05 4C 5C FFFFFFC0 00 20
   08 08 64 4E 5C FFFFFF90 FFFFFF80 FFFFFFC0 00 20 08 07 65 00 FFFFFF91 FFFFFF80
   FFFFFF84 00 51 01 0C 74 6F 24 64 65 66 61 75 6C 74 24
   32 08 05 67 00 FFFFFF84 00 68 01 03 6D 69 6E 14 02 20
   69 08 05 3B 66 FFFFFFC0 00 20 08 05 6B 00 FFFFFF84 00 6C 01
   03 6D 61 78 14 02 20 6D 08 05 3B 6A FFFFFFC0 00 20 08
   05 6F 00 FFFFFF84 00 70 01 03 61 62 73 15 01 20 08 05
   72 00 FFFFFF84 00 73 01 0E 74 6F 42 69 6E 61 72 79 53
   74 72 69 6E 67 15 01 74 10 02 75 78 0E 02 11 76
   09 02 77 04 01 06 50 72 65 64 65 66 09 02 79 7A
   02 06 53 74 72 69 6E 67 0A 02 77 04 08 05 7C 00
   FFFFFF84 00 73 01 0B 74 6F 48 65 78 53 74 72 69 6E 67
   08 05 7E 00 FFFFFF84 00 73 01 0D 74 6F 4F 63 74 61 6C
   53 74 72 69 6E 67 
  InnerClass: 
   public #133= #130 of #132; //Exclusive=class scala/collection/immutable/NumericRange$Exclusive of class scala/collection/immutable/NumericRange
   public #136= #135 of #132; //Inclusive=class scala/collection/immutable/NumericRange$Inclusive of class scala/collection/immutable/NumericRange
  minor version: 0
  major version: 49
  Constant pool:
const #1 = Asciz	SourceFile;
const #2 = Asciz	RichLong.scala;
const #3 = Asciz	x;
const #4 = Asciz	J;
const #5 = Asciz	<init>;
const #6 = Asciz	(J)V;
const #7 = Asciz	Code;
const #8 = Asciz	LineNumberTable;
const #9 = Asciz	scala/runtime/RichLong;
const #10 = class	#9;	//  scala/runtime/RichLong
const #11 = NameAndType	#3:#4;//  x:J
const #12 = Field	#10.#11;	//  scala/runtime/RichLong.x:J
const #13 = Asciz	java/lang/Object;
const #14 = class	#13;	//  java/lang/Object
const #15 = Asciz	()V;
const #16 = NameAndType	#5:#15;//  "<init>":()V
const #17 = Method	#14.#16;	//  java/lang/Object."<init>":()V
const #18 = Asciz	scala/Proxy$class;
const #19 = class	#18;	//  scala/Proxy$class
const #20 = Asciz	$init$;
const #21 = Asciz	(Lscala/Proxy;)V;
const #22 = NameAndType	#20:#21;//  $init$:(Lscala/Proxy;)V
const #23 = Method	#19.#22;	//  scala/Proxy$class.$init$:(Lscala/Proxy;)V
const #24 = Asciz	scala/math/Ordered$class;
const #25 = class	#24;	//  scala/math/Ordered$class
const #26 = Asciz	(Lscala/math/Ordered;)V;
const #27 = NameAndType	#20:#26;//  $init$:(Lscala/math/Ordered;)V
const #28 = Method	#25.#27;	//  scala/math/Ordered$class.$init$:(Lscala/math/Ordered;)V
const #29 = Asciz	this;
const #30 = Asciz	Lscala/runtime/RichLong;;
const #31 = Asciz	LocalVariableTable;
const #32 = Asciz	compare;
const #33 = Asciz	(Ljava/lang/Object;)I;
const #34 = Asciz	scala/runtime/BoxesRunTime;
const #35 = class	#34;	//  scala/runtime/BoxesRunTime
const #36 = Asciz	unboxToLong;
const #37 = Asciz	(Ljava/lang/Object;)J;
const #38 = NameAndType	#36:#37;//  unboxToLong:(Ljava/lang/Object;)J
const #39 = Method	#35.#38;	//  scala/runtime/BoxesRunTime.unboxToLong:(Ljava/lang/Object;)J
const #40 = Asciz	(J)I;
const #41 = NameAndType	#32:#40;//  compare:(J)I
const #42 = Method	#10.#41;	//  scala/runtime/RichLong.compare:(J)I
const #43 = Asciz	that;
const #44 = Asciz	Ljava/lang/Object;;
const #45 = Asciz	toOctalString;
const #46 = Asciz	()Ljava/lang/String;;
const #47 = Asciz	java/lang/Long;
const #48 = class	#47;	//  java/lang/Long
const #49 = Asciz	(J)Ljava/lang/String;;
const #50 = NameAndType	#45:#49;//  toOctalString:(J)Ljava/lang/String;
const #51 = Method	#48.#50;	//  java/lang/Long.toOctalString:(J)Ljava/lang/String;
const #52 = Asciz	toHexString;
const #53 = NameAndType	#52:#49;//  toHexString:(J)Ljava/lang/String;
const #54 = Method	#48.#53;	//  java/lang/Long.toHexString:(J)Ljava/lang/String;
const #55 = Asciz	toBinaryString;
const #56 = NameAndType	#55:#49;//  toBinaryString:(J)Ljava/lang/String;
const #57 = Method	#48.#56;	//  java/lang/Long.toBinaryString:(J)Ljava/lang/String;
const #58 = Asciz	abs;
const #59 = Asciz	()J;
const #60 = Asciz	max;
const #61 = Asciz	(J)J;
const #62 = Asciz	y;
const #63 = Asciz	min;
const #64 = Asciz	to;
const #65 = Asciz	(JJ)Lscala/collection/immutable/NumericRange$Inclusive;;
const #66 = Asciz	scala/collection/immutable/Range$Long$;
const #67 = class	#66;	//  scala/collection/immutable/Range$Long$
const #68 = Asciz	MODULE$;
const #69 = Asciz	Lscala/collection/immutable/Range$Long$;;
const #70 = NameAndType	#68:#69;//  MODULE$:Lscala/collection/immutable/Range$Long$;
const #71 = Field	#67.#70;	//  scala/collection/immutable/Range$Long$.MODULE$:Lscala/collection/immutable/Range$Long$;
const #72 = Asciz	inclusive;
const #73 = Asciz	(JJJ)Lscala/collection/immutable/NumericRange$Inclusive;;
const #74 = NameAndType	#72:#73;//  inclusive:(JJJ)Lscala/collection/immutable/NumericRange$Inclusive;
const #75 = Method	#67.#74;	//  scala/collection/immutable/Range$Long$.inclusive:(JJJ)Lscala/collection/immutable/NumericRange$Inclusive;
const #76 = Asciz	end;
const #77 = Asciz	step;
const #78 = Asciz	(JJ)Lscala/collection/immutable/NumericRange$Inclusive<Ljava/lang/Long;>;;
const #79 = Asciz	Signature;
const #80 = Asciz	until;
const #81 = Asciz	(JJ)Lscala/collection/immutable/NumericRange$Exclusive;;
const #82 = Asciz	apply;
const #83 = Asciz	(JJJ)Lscala/collection/immutable/NumericRange$Exclusive;;
const #84 = NameAndType	#82:#83;//  apply:(JJJ)Lscala/collection/immutable/NumericRange$Exclusive;
const #85 = Method	#67.#84;	//  scala/collection/immutable/Range$Long$.apply:(JJJ)Lscala/collection/immutable/NumericRange$Exclusive;
const #86 = Asciz	(JJ)Lscala/collection/immutable/NumericRange$Exclusive<Ljava/lang/Long;>;;
const #87 = Asciz	self;
const #88 = Asciz	()Ljava/lang/Object;;
const #89 = Asciz	boxToLong;
const #90 = Asciz	(J)Ljava/lang/Long;;
const #91 = NameAndType	#89:#90;//  boxToLong:(J)Ljava/lang/Long;
const #92 = Method	#35.#91;	//  scala/runtime/BoxesRunTime.boxToLong:(J)Ljava/lang/Long;
const #93 = Asciz	until$default$2;
const #94 = Asciz	to$default$2;
const #95 = Asciz	toString;
const #96 = Asciz	(Lscala/Proxy;)Ljava/lang/String;;
const #97 = NameAndType	#95:#96;//  toString:(Lscala/Proxy;)Ljava/lang/String;
const #98 = Method	#19.#97;	//  scala/Proxy$class.toString:(Lscala/Proxy;)Ljava/lang/String;
const #99 = Asciz	equals;
const #100 = Asciz	(Ljava/lang/Object;)Z;
const #101 = Asciz	(Lscala/Proxy;Ljava/lang/Object;)Z;
const #102 = NameAndType	#99:#101;//  equals:(Lscala/Proxy;Ljava/lang/Object;)Z
const #103 = Method	#19.#102;	//  scala/Proxy$class.equals:(Lscala/Proxy;Ljava/lang/Object;)Z
const #104 = Asciz	hashCode;
const #105 = Asciz	()I;
const #106 = Asciz	(Lscala/Proxy;)I;
const #107 = NameAndType	#104:#106;//  hashCode:(Lscala/Proxy;)I
const #108 = Method	#19.#107;	//  scala/Proxy$class.hashCode:(Lscala/Proxy;)I
const #109 = Asciz	compareTo;
const #110 = Asciz	(Lscala/math/Ordered;Ljava/lang/Object;)I;
const #111 = NameAndType	#109:#110;//  compareTo:(Lscala/math/Ordered;Ljava/lang/Object;)I
const #112 = Method	#25.#111;	//  scala/math/Ordered$class.compareTo:(Lscala/math/Ordered;Ljava/lang/Object;)I
const #113 = Asciz	$greater$eq;
const #114 = Asciz	(Lscala/math/Ordered;Ljava/lang/Object;)Z;
const #115 = NameAndType	#113:#114;//  $greater$eq:(Lscala/math/Ordered;Ljava/lang/Object;)Z
const #116 = Method	#25.#115;	//  scala/math/Ordered$class.$greater$eq:(Lscala/math/Ordered;Ljava/lang/Object;)Z
const #117 = Asciz	$less$eq;
const #118 = NameAndType	#117:#114;//  $less$eq:(Lscala/math/Ordered;Ljava/lang/Object;)Z
const #119 = Method	#25.#118;	//  scala/math/Ordered$class.$less$eq:(Lscala/math/Ordered;Ljava/lang/Object;)Z
const #120 = Asciz	$greater;
const #121 = NameAndType	#120:#114;//  $greater:(Lscala/math/Ordered;Ljava/lang/Object;)Z
const #122 = Method	#25.#121;	//  scala/math/Ordered$class.$greater:(Lscala/math/Ordered;Ljava/lang/Object;)Z
const #123 = Asciz	$less;
const #124 = NameAndType	#123:#114;//  $less:(Lscala/math/Ordered;Ljava/lang/Object;)Z
const #125 = Method	#25.#124;	//  scala/math/Ordered$class.$less:(Lscala/math/Ordered;Ljava/lang/Object;)Z
const #126 = Asciz	Ljava/lang/Object;Lscala/Proxy;Lscala/math/Ordered<Ljava/lang/Long;>;Lscala/ScalaObject;;
const #127 = Asciz	ScalaSig;
const #128 = Asciz	InnerClasses;
const #129 = Asciz	scala/collection/immutable/NumericRange$Exclusive;
const #130 = class	#129;	//  scala/collection/immutable/NumericRange$Exclusive
const #131 = Asciz	scala/collection/immutable/NumericRange;
const #132 = class	#131;	//  scala/collection/immutable/NumericRange
const #133 = Asciz	Exclusive;
const #134 = Asciz	scala/collection/immutable/NumericRange$Inclusive;
const #135 = class	#134;	//  scala/collection/immutable/NumericRange$Inclusive
const #136 = Asciz	Inclusive;
const #137 = Asciz	scala/Proxy;
const #138 = class	#137;	//  scala/Proxy
const #139 = Asciz	scala/math/Ordered;
const #140 = class	#139;	//  scala/math/Ordered
const #141 = Asciz	scala/ScalaObject;
const #142 = class	#141;	//  scala/ScalaObject

{
public scala.runtime.RichLong(long);
  Code:
   Stack=3, Locals=3, Args_size=2
   0:	aload_0
   1:	lload_1
   2:	putfield	#12; //Field x:J
   5:	aload_0
   6:	invokespecial	#17; //Method java/lang/Object."<init>":()V
   9:	aload_0
   10:	invokestatic	#23; //Method scala/Proxy$class.$init$:(Lscala/Proxy;)V
   13:	aload_0
   14:	invokestatic	#28; //Method scala/math/Ordered$class.$init$:(Lscala/math/Ordered;)V
   17:	return
  LineNumberTable: 
   line 16: 0

  LocalVariableTable: 
   Start  Length  Slot  Name   Signature
   0      18      0    this       Lscala/runtime/RichLong;
   0      18      1    x       J


public int compare(java.lang.Object);
  Code:
   Stack=3, Locals=2, Args_size=2
   0:	aload_0
   1:	aload_1
   2:	invokestatic	#39; //Method scala/runtime/BoxesRunTime.unboxToLong:(Ljava/lang/Object;)J
   5:	invokevirtual	#42; //Method compare:(J)I
   8:	ireturn
  LineNumberTable: 
   line 16: 0

  LocalVariableTable: 
   Start  Length  Slot  Name   Signature
   0      9      0    this       Lscala/runtime/RichLong;
   0      9      1    that       Ljava/lang/Object;


public java.lang.String toOctalString();
  Code:
   Stack=2, Locals=1, Args_size=1
   0:	aload_0
   1:	getfield	#12; //Field x:J
   4:	invokestatic	#51; //Method java/lang/Long.toOctalString:(J)Ljava/lang/String;
   7:	areturn
  LineNumberTable: 
   line 43: 0


public java.lang.String toHexString();
  Code:
   Stack=2, Locals=1, Args_size=1
   0:	aload_0
   1:	getfield	#12; //Field x:J
   4:	invokestatic	#54; //Method java/lang/Long.toHexString:(J)Ljava/lang/String;
   7:	areturn
  LineNumberTable: 
   line 42: 0


public java.lang.String toBinaryString();
  Code:
   Stack=2, Locals=1, Args_size=1
   0:	aload_0
   1:	getfield	#12; //Field x:J
   4:	invokestatic	#57; //Method java/lang/Long.toBinaryString:(J)Ljava/lang/String;
   7:	areturn
  LineNumberTable: 
   line 41: 0


public long abs();
  Code:
   Stack=4, Locals=1, Args_size=1
   0:	aload_0
   1:	getfield	#12; //Field x:J
   4:	lconst_0
   5:	lcmp
   6:	ifge	17
   9:	aload_0
   10:	getfield	#12; //Field x:J
   13:	lneg
   14:	goto	21
   17:	aload_0
   18:	getfield	#12; //Field x:J
   21:	lreturn
  LineNumberTable: 
   line 39: 0


public long max(long);
  Code:
   Stack=4, Locals=3, Args_size=2
   0:	aload_0
   1:	getfield	#12; //Field x:J
   4:	lload_1
   5:	lcmp
   6:	ifle	16
   9:	aload_0
   10:	getfield	#12; //Field x:J
   13:	goto	17
   16:	lload_1
   17:	lreturn
  LineNumberTable: 
   line 38: 0

  LocalVariableTable: 
   Start  Length  Slot  Name   Signature
   0      18      0    this       Lscala/runtime/RichLong;
   0      18      1    y       J


public long min(long);
  Code:
   Stack=4, Locals=3, Args_size=2
   0:	aload_0
   1:	getfield	#12; //Field x:J
   4:	lload_1
   5:	lcmp
   6:	ifge	16
   9:	aload_0
   10:	getfield	#12; //Field x:J
   13:	goto	17
   16:	lload_1
   17:	lreturn
  LineNumberTable: 
   line 37: 0

  LocalVariableTable: 
   Start  Length  Slot  Name   Signature
   0      18      0    this       Lscala/runtime/RichLong;
   0      18      1    y       J


public scala.collection.immutable.NumericRange$Inclusive to(long, long);
  Code:
   Stack=7, Locals=5, Args_size=3
   0:	getstatic	#71; //Field scala/collection/immutable/Range$Long$.MODULE$:Lscala/collection/immutable/Range$Long$;
   3:	aload_0
   4:	getfield	#12; //Field x:J
   7:	lload_1
   8:	lload_3
   9:	invokevirtual	#75; //Method scala/collection/immutable/Range$Long$.inclusive:(JJJ)Lscala/collection/immutable/NumericRange$Inclusive;
   12:	areturn
  LineNumberTable: 
   line 35: 0

  LocalVariableTable: 
   Start  Length  Slot  Name   Signature
   0      13      0    this       Lscala/runtime/RichLong;
   0      13      1    end       J
   0      13      3    step       J

  Signature: length = 0x2
   00 4E 

public scala.collection.immutable.NumericRange$Exclusive until(long, long);
  Code:
   Stack=7, Locals=5, Args_size=3
   0:	getstatic	#71; //Field scala/collection/immutable/Range$Long$.MODULE$:Lscala/collection/immutable/Range$Long$;
   3:	aload_0
   4:	getfield	#12; //Field x:J
   7:	lload_1
   8:	lload_3
   9:	invokevirtual	#85; //Method scala/collection/immutable/Range$Long$.apply:(JJJ)Lscala/collection/immutable/NumericRange$Exclusive;
   12:	areturn
  LineNumberTable: 
   line 31: 0

  LocalVariableTable: 
   Start  Length  Slot  Name   Signature
   0      13      0    this       Lscala/runtime/RichLong;
   0      13      1    end       J
   0      13      3    step       J

  Signature: length = 0x2
   00 56 

public int compare(long);
  Code:
   Stack=4, Locals=3, Args_size=2
   0:	aload_0
   1:	getfield	#12; //Field x:J
   4:	lload_1
   5:	lcmp
   6:	ifge	13
   9:	iconst_m1
   10:	goto	27
   13:	aload_0
   14:	getfield	#12; //Field x:J
   17:	lload_1
   18:	lcmp
   19:	ifle	26
   22:	iconst_1
   23:	goto	27
   26:	iconst_0
   27:	ireturn
  LineNumberTable: 
   line 22: 0

  LocalVariableTable: 
   Start  Length  Slot  Name   Signature
   0      28      0    this       Lscala/runtime/RichLong;
   0      28      1    y       J


public java.lang.Object self();
  Code:
   Stack=2, Locals=3, Args_size=1
   0:	aload_0
   1:	getfield	#12; //Field x:J
   4:	lstore_1
   5:	lload_1
   6:	invokestatic	#92; //Method scala/runtime/BoxesRunTime.boxToLong:(J)Ljava/lang/Long;
   9:	areturn
  LineNumberTable: 
   line 19: 0


public long until$default$2();
  Code:
   Stack=2, Locals=1, Args_size=1
   0:	lconst_1
   1:	lreturn
  LineNumberTable: 
   line 31: 0


public long to$default$2();
  Code:
   Stack=2, Locals=1, Args_size=1
   0:	lconst_1
   1:	lreturn
  LineNumberTable: 
   line 35: 0


public java.lang.String toString();
  Code:
   Stack=1, Locals=1, Args_size=1
   0:	aload_0
   1:	invokestatic	#98; //Method scala/Proxy$class.toString:(Lscala/Proxy;)Ljava/lang/String;
   4:	areturn
  LineNumberTable: 
   line 16: 0


public boolean equals(java.lang.Object);
  Code:
   Stack=2, Locals=2, Args_size=2
   0:	aload_0
   1:	aload_1
   2:	invokestatic	#103; //Method scala/Proxy$class.equals:(Lscala/Proxy;Ljava/lang/Object;)Z
   5:	ireturn
  LineNumberTable: 
   line 16: 0

  LocalVariableTable: 
   Start  Length  Slot  Name   Signature
   0      6      0    this       Lscala/runtime/RichLong;
   0      6      1    that       Ljava/lang/Object;


public int hashCode();
  Code:
   Stack=1, Locals=1, Args_size=1
   0:	aload_0
   1:	invokestatic	#108; //Method scala/Proxy$class.hashCode:(Lscala/Proxy;)I
   4:	ireturn
  LineNumberTable: 
   line 16: 0


public int compareTo(java.lang.Object);
  Code:
   Stack=2, Locals=2, Args_size=2
   0:	aload_0
   1:	aload_1
   2:	invokestatic	#112; //Method scala/math/Ordered$class.compareTo:(Lscala/math/Ordered;Ljava/lang/Object;)I
   5:	ireturn
  LineNumberTable: 
   line 16: 0

  LocalVariableTable: 
   Start  Length  Slot  Name   Signature
   0      6      0    this       Lscala/runtime/RichLong;
   0      6      1    that       Ljava/lang/Object;


public boolean $greater$eq(java.lang.Object);
  Code:
   Stack=2, Locals=2, Args_size=2
   0:	aload_0
   1:	aload_1
   2:	invokestatic	#116; //Method scala/math/Ordered$class.$greater$eq:(Lscala/math/Ordered;Ljava/lang/Object;)Z
   5:	ireturn
  LineNumberTable: 
   line 16: 0

  LocalVariableTable: 
   Start  Length  Slot  Name   Signature
   0      6      0    this       Lscala/runtime/RichLong;
   0      6      1    that       Ljava/lang/Object;


public boolean $less$eq(java.lang.Object);
  Code:
   Stack=2, Locals=2, Args_size=2
   0:	aload_0
   1:	aload_1
   2:	invokestatic	#119; //Method scala/math/Ordered$class.$less$eq:(Lscala/math/Ordered;Ljava/lang/Object;)Z
   5:	ireturn
  LineNumberTable: 
   line 16: 0

  LocalVariableTable: 
   Start  Length  Slot  Name   Signature
   0      6      0    this       Lscala/runtime/RichLong;
   0      6      1    that       Ljava/lang/Object;


public boolean $greater(java.lang.Object);
  Code:
   Stack=2, Locals=2, Args_size=2
   0:	aload_0
   1:	aload_1
   2:	invokestatic	#122; //Method scala/math/Ordered$class.$greater:(Lscala/math/Ordered;Ljava/lang/Object;)Z
   5:	ireturn
  LineNumberTable: 
   line 16: 0

  LocalVariableTable: 
   Start  Length  Slot  Name   Signature
   0      6      0    this       Lscala/runtime/RichLong;
   0      6      1    that       Ljava/lang/Object;


public boolean $less(java.lang.Object);
  Code:
   Stack=2, Locals=2, Args_size=2
   0:	aload_0
   1:	aload_1
   2:	invokestatic	#125; //Method scala/math/Ordered$class.$less:(Lscala/math/Ordered;Ljava/lang/Object;)Z
   5:	ireturn
  LineNumberTable: 
   line 16: 0

  LocalVariableTable: 
   Start  Length  Slot  Name   Signature
   0      6      0    this       Lscala/runtime/RichLong;
   0      6      1    that       Ljava/lang/Object;


}

