Compiled from "RichByte.scala"
public final class scala.runtime.RichByte extends java.lang.Object implements scala.Proxy,scala.math.Ordered,scala.ScalaObject
  SourceFile: "RichByte.scala"
  Signature: length = 0x2
   00 54 
  ScalaSig: length = 0x145
   05 00 3C 06 08 01 02 FFFFFF84 FFFFFF80 FFFFFF80 FFFFFF80 02 07 02 08 52
   69 63 68 42 79 74 65 0A 02 03 04 01 07 72 75 6E
   74 69 6D 65 0A 01 05 01 05 73 63 61 6C 61 03 00
   13 05 00 08 10 14 23 10 02 09 0E 0D 01 0A 0A 02
   0B 0C 01 04 6C 61 6E 67 0A 01 0D 01 04 6A 61 76
   61 09 02 0F 0A 02 06 4F 62 6A 65 63 74 10 02 11
   12 0D 01 04 09 02 13 04 02 05 50 72 6F 78 79 10
   03 15 1D 20 0E 02 16 1B 0E 02 17 1A 0D 01 18 0A
   02 19 06 01 06 3C 72 6F 6F 74 3E 09 01 05 09 02
   1C 04 01 07 70 61 63 6B 61 67 65 09 02 1E 1F 02
   07 4F 72 64 65 72 65 64 0A 02 1C 04 10 02 11 21
   09 02 22 04 02 04 42 79 74 65 10 02 11 24 09 02
   25 04 02 0B 53 63 61 6C 61 4F 62 6A 65 63 74 08
   08 27 00 FFFFFF82 FFFFFF80 FFFFFFA0 FFFFFF80 04 20 01 01 78 08 05 29 00
   FFFFFF84 00 2A 01 06 3C 69 6E 69 74 3E 14 02 2B 2D 10
   02 2C 00 0D 01 02 08 05 27 28 FFFFFFC0 00 20 08 05 2F
   00 FFFFFF84 00 30 01 04 73 65 6C 66 15 01 31 10 02 11
   32 09 02 33 04 02 03 41 6E 79 08 05 35 00 FFFFFF84 00
   36 01 07 63 6F 6D 70 61 72 65 14 02 37 3A 10 02
   11 38 09 02 39 04 02 03 49 6E 74 08 05 3B 34 FFFFFFC0
   00 20 01 01 79 
  minor version: 0
  major version: 49
  Constant pool:
const #1 = Asciz	SourceFile;
const #2 = Asciz	RichByte.scala;
const #3 = Asciz	x;
const #4 = Asciz	B;
const #5 = Asciz	<init>;
const #6 = Asciz	(B)V;
const #7 = Asciz	Code;
const #8 = Asciz	LineNumberTable;
const #9 = Asciz	scala/runtime/RichByte;
const #10 = class	#9;	//  scala/runtime/RichByte
const #11 = NameAndType	#3:#4;//  x:B
const #12 = Field	#10.#11;	//  scala/runtime/RichByte.x:B
const #13 = Asciz	java/lang/Object;
const #14 = class	#13;	//  java/lang/Object
const #15 = Asciz	()V;
const #16 = NameAndType	#5:#15;//  "<init>":()V
const #17 = Method	#14.#16;	//  java/lang/Object."<init>":()V
const #18 = Asciz	scala/Proxy$class;
const #19 = class	#18;	//  scala/Proxy$class
const #20 = Asciz	$init$;
const #21 = Asciz	(Lscala/Proxy;)V;
const #22 = NameAndType	#20:#21;//  $init$:(Lscala/Proxy;)V
const #23 = Method	#19.#22;	//  scala/Proxy$class.$init$:(Lscala/Proxy;)V
const #24 = Asciz	scala/math/Ordered$class;
const #25 = class	#24;	//  scala/math/Ordered$class
const #26 = Asciz	(Lscala/math/Ordered;)V;
const #27 = NameAndType	#20:#26;//  $init$:(Lscala/math/Ordered;)V
const #28 = Method	#25.#27;	//  scala/math/Ordered$class.$init$:(Lscala/math/Ordered;)V
const #29 = Asciz	this;
const #30 = Asciz	Lscala/runtime/RichByte;;
const #31 = Asciz	LocalVariableTable;
const #32 = Asciz	compare;
const #33 = Asciz	(Ljava/lang/Object;)I;
const #34 = Asciz	scala/runtime/BoxesRunTime;
const #35 = class	#34;	//  scala/runtime/BoxesRunTime
const #36 = Asciz	unboxToByte;
const #37 = Asciz	(Ljava/lang/Object;)B;
const #38 = NameAndType	#36:#37;//  unboxToByte:(Ljava/lang/Object;)B
const #39 = Method	#35.#38;	//  scala/runtime/BoxesRunTime.unboxToByte:(Ljava/lang/Object;)B
const #40 = Asciz	(B)I;
const #41 = NameAndType	#32:#40;//  compare:(B)I
const #42 = Method	#10.#41;	//  scala/runtime/RichByte.compare:(B)I
const #43 = Asciz	that;
const #44 = Asciz	Ljava/lang/Object;;
const #45 = Asciz	y;
const #46 = Asciz	self;
const #47 = Asciz	()Ljava/lang/Object;;
const #48 = Asciz	boxToByte;
const #49 = Asciz	(B)Ljava/lang/Byte;;
const #50 = NameAndType	#48:#49;//  boxToByte:(B)Ljava/lang/Byte;
const #51 = Method	#35.#50;	//  scala/runtime/BoxesRunTime.boxToByte:(B)Ljava/lang/Byte;
const #52 = Asciz	toString;
const #53 = Asciz	()Ljava/lang/String;;
const #54 = Asciz	(Lscala/Proxy;)Ljava/lang/String;;
const #55 = NameAndType	#52:#54;//  toString:(Lscala/Proxy;)Ljava/lang/String;
const #56 = Method	#19.#55;	//  scala/Proxy$class.toString:(Lscala/Proxy;)Ljava/lang/String;
const #57 = Asciz	equals;
const #58 = Asciz	(Ljava/lang/Object;)Z;
const #59 = Asciz	(Lscala/Proxy;Ljava/lang/Object;)Z;
const #60 = NameAndType	#57:#59;//  equals:(Lscala/Proxy;Ljava/lang/Object;)Z
const #61 = Method	#19.#60;	//  scala/Proxy$class.equals:(Lscala/Proxy;Ljava/lang/Object;)Z
const #62 = Asciz	hashCode;
const #63 = Asciz	()I;
const #64 = Asciz	(Lscala/Proxy;)I;
const #65 = NameAndType	#62:#64;//  hashCode:(Lscala/Proxy;)I
const #66 = Method	#19.#65;	//  scala/Proxy$class.hashCode:(Lscala/Proxy;)I
const #67 = Asciz	compareTo;
const #68 = Asciz	(Lscala/math/Ordered;Ljava/lang/Object;)I;
const #69 = NameAndType	#67:#68;//  compareTo:(Lscala/math/Ordered;Ljava/lang/Object;)I
const #70 = Method	#25.#69;	//  scala/math/Ordered$class.compareTo:(Lscala/math/Ordered;Ljava/lang/Object;)I
const #71 = Asciz	$greater$eq;
const #72 = Asciz	(Lscala/math/Ordered;Ljava/lang/Object;)Z;
const #73 = NameAndType	#71:#72;//  $greater$eq:(Lscala/math/Ordered;Ljava/lang/Object;)Z
const #74 = Method	#25.#73;	//  scala/math/Ordered$class.$greater$eq:(Lscala/math/Ordered;Ljava/lang/Object;)Z
const #75 = Asciz	$less$eq;
const #76 = NameAndType	#75:#72;//  $less$eq:(Lscala/math/Ordered;Ljava/lang/Object;)Z
const #77 = Method	#25.#76;	//  scala/math/Ordered$class.$less$eq:(Lscala/math/Ordered;Ljava/lang/Object;)Z
const #78 = Asciz	$greater;
const #79 = NameAndType	#78:#72;//  $greater:(Lscala/math/Ordered;Ljava/lang/Object;)Z
const #80 = Method	#25.#79;	//  scala/math/Ordered$class.$greater:(Lscala/math/Ordered;Ljava/lang/Object;)Z
const #81 = Asciz	$less;
const #82 = NameAndType	#81:#72;//  $less:(Lscala/math/Ordered;Ljava/lang/Object;)Z
const #83 = Method	#25.#82;	//  scala/math/Ordered$class.$less:(Lscala/math/Ordered;Ljava/lang/Object;)Z
const #84 = Asciz	Ljava/lang/Object;Lscala/Proxy;Lscala/math/Ordered<Ljava/lang/Byte;>;Lscala/ScalaObject;;
const #85 = Asciz	Signature;
const #86 = Asciz	ScalaSig;
const #87 = Asciz	scala/Proxy;
const #88 = class	#87;	//  scala/Proxy
const #89 = Asciz	scala/math/Ordered;
const #90 = class	#89;	//  scala/math/Ordered
const #91 = Asciz	scala/ScalaObject;
const #92 = class	#91;	//  scala/ScalaObject

{
public scala.runtime.RichByte(byte);
  Code:
   Stack=2, Locals=2, Args_size=2
   0:	aload_0
   1:	iload_1
   2:	putfield	#12; //Field x:B
   5:	aload_0
   6:	invokespecial	#17; //Method java/lang/Object."<init>":()V
   9:	aload_0
   10:	invokestatic	#23; //Method scala/Proxy$class.$init$:(Lscala/Proxy;)V
   13:	aload_0
   14:	invokestatic	#28; //Method scala/math/Ordered$class.$init$:(Lscala/math/Ordered;)V
   17:	return
  LineNumberTable: 
   line 15: 0

  LocalVariableTable: 
   Start  Length  Slot  Name   Signature
   0      18      0    this       Lscala/runtime/RichByte;
   0      18      1    x       B


public int compare(java.lang.Object);
  Code:
   Stack=2, Locals=2, Args_size=2
   0:	aload_0
   1:	aload_1
   2:	invokestatic	#39; //Method scala/runtime/BoxesRunTime.unboxToByte:(Ljava/lang/Object;)B
   5:	invokevirtual	#42; //Method compare:(B)I
   8:	ireturn
  LineNumberTable: 
   line 15: 0

  LocalVariableTable: 
   Start  Length  Slot  Name   Signature
   0      9      0    this       Lscala/runtime/RichByte;
   0      9      1    that       Ljava/lang/Object;


public int compare(byte);
  Code:
   Stack=2, Locals=2, Args_size=2
   0:	aload_0
   1:	getfield	#12; //Field x:B
   4:	iload_1
   5:	if_icmpge	12
   8:	iconst_m1
   9:	goto	25
   12:	aload_0
   13:	getfield	#12; //Field x:B
   16:	iload_1
   17:	if_icmple	24
   20:	iconst_1
   21:	goto	25
   24:	iconst_0
   25:	ireturn
  LineNumberTable: 
   line 21: 0

  LocalVariableTable: 
   Start  Length  Slot  Name   Signature
   0      26      0    this       Lscala/runtime/RichByte;
   0      26      1    y       B


public java.lang.Object self();
  Code:
   Stack=1, Locals=2, Args_size=1
   0:	aload_0
   1:	getfield	#12; //Field x:B
   4:	istore_1
   5:	iload_1
   6:	invokestatic	#51; //Method scala/runtime/BoxesRunTime.boxToByte:(B)Ljava/lang/Byte;
   9:	areturn
  LineNumberTable: 
   line 18: 0


public java.lang.String toString();
  Code:
   Stack=1, Locals=1, Args_size=1
   0:	aload_0
   1:	invokestatic	#56; //Method scala/Proxy$class.toString:(Lscala/Proxy;)Ljava/lang/String;
   4:	areturn
  LineNumberTable: 
   line 15: 0


public boolean equals(java.lang.Object);
  Code:
   Stack=2, Locals=2, Args_size=2
   0:	aload_0
   1:	aload_1
   2:	invokestatic	#61; //Method scala/Proxy$class.equals:(Lscala/Proxy;Ljava/lang/Object;)Z
   5:	ireturn
  LineNumberTable: 
   line 15: 0

  LocalVariableTable: 
   Start  Length  Slot  Name   Signature
   0      6      0    this       Lscala/runtime/RichByte;
   0      6      1    that       Ljava/lang/Object;


public int hashCode();
  Code:
   Stack=1, Locals=1, Args_size=1
   0:	aload_0
   1:	invokestatic	#66; //Method scala/Proxy$class.hashCode:(Lscala/Proxy;)I
   4:	ireturn
  LineNumberTable: 
   line 15: 0


public int compareTo(java.lang.Object);
  Code:
   Stack=2, Locals=2, Args_size=2
   0:	aload_0
   1:	aload_1
   2:	invokestatic	#70; //Method scala/math/Ordered$class.compareTo:(Lscala/math/Ordered;Ljava/lang/Object;)I
   5:	ireturn
  LineNumberTable: 
   line 15: 0

  LocalVariableTable: 
   Start  Length  Slot  Name   Signature
   0      6      0    this       Lscala/runtime/RichByte;
   0      6      1    that       Ljava/lang/Object;


public boolean $greater$eq(java.lang.Object);
  Code:
   Stack=2, Locals=2, Args_size=2
   0:	aload_0
   1:	aload_1
   2:	invokestatic	#74; //Method scala/math/Ordered$class.$greater$eq:(Lscala/math/Ordered;Ljava/lang/Object;)Z
   5:	ireturn
  LineNumberTable: 
   line 15: 0

  LocalVariableTable: 
   Start  Length  Slot  Name   Signature
   0      6      0    this       Lscala/runtime/RichByte;
   0      6      1    that       Ljava/lang/Object;


public boolean $less$eq(java.lang.Object);
  Code:
   Stack=2, Locals=2, Args_size=2
   0:	aload_0
   1:	aload_1
   2:	invokestatic	#77; //Method scala/math/Ordered$class.$less$eq:(Lscala/math/Ordered;Ljava/lang/Object;)Z
   5:	ireturn
  LineNumberTable: 
   line 15: 0

  LocalVariableTable: 
   Start  Length  Slot  Name   Signature
   0      6      0    this       Lscala/runtime/RichByte;
   0      6      1    that       Ljava/lang/Object;


public boolean $greater(java.lang.Object);
  Code:
   Stack=2, Locals=2, Args_size=2
   0:	aload_0
   1:	aload_1
   2:	invokestatic	#80; //Method scala/math/Ordered$class.$greater:(Lscala/math/Ordered;Ljava/lang/Object;)Z
   5:	ireturn
  LineNumberTable: 
   line 15: 0

  LocalVariableTable: 
   Start  Length  Slot  Name   Signature
   0      6      0    this       Lscala/runtime/RichByte;
   0      6      1    that       Ljava/lang/Object;


public boolean $less(java.lang.Object);
  Code:
   Stack=2, Locals=2, Args_size=2
   0:	aload_0
   1:	aload_1
   2:	invokestatic	#83; //Method scala/math/Ordered$class.$less:(Lscala/math/Ordered;Ljava/lang/Object;)Z
   5:	ireturn
  LineNumberTable: 
   line 15: 0

  LocalVariableTable: 
   Start  Length  Slot  Name   Signature
   0      6      0    this       Lscala/runtime/RichByte;
   0      6      1    that       Ljava/lang/Object;


}

