Compiled from "RichLong.scala"
public final class scala.runtime.RichLong extends java.lang.Object implements scala.Proxy,scala.math.Ordered,scala.ScalaObject
  SourceFile: "RichLong.scala"
  Signature: length = 0x2
   00 7E 
  ScalaSig: length = 0x316
   05 00 7F 06 08 01 02 FFFFFF84 FFFFFF80 FFFFFF80 FFFFFF80 02 07 02 08 52
   69 63 68 4C 6F 6E 67 0A 02 03 04 01 07 72 75 6E
   74 69 6D 65 0A 01 05 01 05 73 63 61 6C 61 03 00
   13 05 00 08 10 14 23 10 02 09 0E 0D 01 0A 0A 02
   0B 0C 01 04 6C 61 6E 67 0A 01 0D 01 04 6A 61 76
   61 09 02 0F 0A 02 06 4F 62 6A 65 63 74 10 02 11
   12 0D 01 04 09 02 13 04 02 05 50 72 6F 78 79 10
   03 15 1D 20 0E 02 16 1B 0E 02 17 1A 0D 01 18 0A
   02 19 06 01 06 3C 72 6F 6F 74 3E 09 01 05 09 02
   1C 04 01 07 70 61 63 6B 61 67 65 09 02 1E 1F 02
   07 4F 72 64 65 72 65 64 0A 02 1C 04 10 02 11 21
   09 02 22 04 02 04 4C 6F 6E 67 10 02 11 24 09 02
   25 04 02 0B 53 63 61 6C 61 4F 62 6A 65 63 74 08
   08 27 00 FFFFFF82 FFFFFF80 FFFFFFA0 FFFFFF80 04 20 01 01 78 08 05 29 00
   FFFFFF84 00 2A 01 06 3C 69 6E 69 74 3E 14 02 2B 2D 10
   02 2C 00 0D 01 02 08 05 27 28 FFFFFFC0 00 20 08 05 2F
   00 FFFFFF84 00 30 01 04 73 65 6C 66 15 01 31 10 02 11
   32 09 02 33 04 02 03 41 6E 79 08 05 35 00 FFFFFF84 00
   36 01 07 63 6F 6D 70 61 72 65 14 02 37 3A 10 02
   11 38 09 02 39 04 02 03 49 6E 74 08 05 3B 34 FFFFFFC0
   00 20 01 01 79 08 05 3D 00 FFFFFF84 00 3E 01 05 75 6E
   74 69 6C 14 03 3F 4B 4D 10 03 40 48 20 0E 02 41
   46 0D 01 42 0A 02 43 44 01 09 69 6D 6D 75 74 61
   62 6C 65 0A 02 45 04 01 0A 63 6F 6C 6C 65 63 74
   69 6F 6E 09 02 47 42 01 0C 4E 75 6D 65 72 69 63
   52 61 6E 67 65 09 02 49 4A 02 09 45 78 63 6C 75
   73 69 76 65 0A 02 47 42 08 05 4C 3C FFFFFFC0 00 20 01
   03 65 6E 64 08 08 4F 4E 3C FFFFFF90 FFFFFF80 FFFFFFC0 00 20 01 04
   73 74 65 70 08 07 50 00 FFFFFF91 FFFFFF80 FFFFFF84 00 51 01 0F 75
   6E 74 69 6C 24 64 65 66 61 75 6C 74 24 32 15 01
   52 2A 02 20 53 2B 01 54 10 02 55 5A 0D 01 56 0A
   02 57 58 01 09 75 6E 63 68 65 63 6B 65 64 0A 02
   59 04 01 0A 61 6E 6E 6F 74 61 74 69 6F 6E 09 02
   5B 56 02 11 75 6E 63 68 65 63 6B 65 64 56 61 72
   69 61 6E 63 65 08 05 5D 00 FFFFFF84 00 5E 01 02 74 6F
   14 03 5F 62 63 10 03 40 60 20 09 02 61 4A 02 09
   49 6E 63 6C 75 73 69 76 65 08 05 4C 5C FFFFFFC0 00 20
   08 08 64 4E 5C FFFFFF90 FFFFFF80 FFFFFFC0 00 20 08 07 65 00 FFFFFF91 FFFFFF80
   FFFFFF84 00 51 01 0C 74 6F 24 64 65 66 61 75 6C 74 24
   32 08 05 67 00 FFFFFF84 00 68 01 03 6D 69 6E 14 02 20
   69 08 05 3B 66 FFFFFFC0 00 20 08 05 6B 00 FFFFFF84 00 6C 01
   03 6D 61 78 14 02 20 6D 08 05 3B 6A FFFFFFC0 00 20 08
   05 6F 00 FFFFFF84 00 70 01 03 61 62 73 15 01 20 08 05
   72 00 FFFFFF84 00 73 01 0E 74 6F 42 69 6E 61 72 79 53
   74 72 69 6E 67 15 01 74 10 02 75 78 0E 02 11 76
   09 02 77 04 01 06 50 72 65 64 65 66 09 02 79 7A
   02 06 53 74 72 69 6E 67 0A 02 77 04 08 05 7C 00
   FFFFFF84 00 73 01 0B 74 6F 48 65 78 53 74 72 69 6E 67
   08 05 7E 00 FFFFFF84 00 73 01 0D 74 6F 4F 63 74 61 6C
   53 74 72 69 6E 67 
  InnerClass: 
   public Exclusive=class scala/collection/immutable/NumericRange$Exclusive of class scala/collection/immutable/NumericRange
   public Inclusive=class scala/collection/immutable/NumericRange$Inclusive of class scala/collection/immutable/NumericRange
  minor version: 0
  major version: 49
  Constant pool:
Asciz	SourceFile;
Asciz	RichLong.scala;
Asciz	x;
Asciz	J;
Asciz	<init>;
Asciz	(J)V;
Asciz	Code;
Asciz	LineNumberTable;
Asciz	scala/runtime/RichLong;
class	scala/runtime/RichLong
NameAndType	x:J
Field	scala/runtime/RichLong.x:J
Asciz	java/lang/Object;
class	java/lang/Object
Asciz	()V;
NameAndType	"<init>":()V
Method	java/lang/Object."<init>":()V
Asciz	scala/Proxy$class;
class	scala/Proxy$class
Asciz	$init$;
Asciz	(Lscala/Proxy;)V;
NameAndType	$init$:(Lscala/Proxy;)V
Method	scala/Proxy$class.$init$:(Lscala/Proxy;)V
Asciz	scala/math/Ordered$class;
class	scala/math/Ordered$class
Asciz	(Lscala/math/Ordered;)V;
NameAndType	$init$:(Lscala/math/Ordered;)V
Method	scala/math/Ordered$class.$init$:(Lscala/math/Ordered;)V
Asciz	this;
Asciz	Lscala/runtime/RichLong;;
Asciz	LocalVariableTable;
Asciz	compare;
Asciz	(Ljava/lang/Object;)I;
Asciz	scala/runtime/BoxesRunTime;
class	scala/runtime/BoxesRunTime
Asciz	unboxToLong;
Asciz	(Ljava/lang/Object;)J;
NameAndType	unboxToLong:(Ljava/lang/Object;)J
Method	scala/runtime/BoxesRunTime.unboxToLong:(Ljava/lang/Object;)J
Asciz	(J)I;
NameAndType	compare:(J)I
Method	scala/runtime/RichLong.compare:(J)I
Asciz	that;
Asciz	Ljava/lang/Object;;
Asciz	toOctalString;
Asciz	()Ljava/lang/String;;
Asciz	java/lang/Long;
class	java/lang/Long
Asciz	(J)Ljava/lang/String;;
NameAndType	toOctalString:(J)Ljava/lang/String;
Method	java/lang/Long.toOctalString:(J)Ljava/lang/String;
Asciz	toHexString;
NameAndType	toHexString:(J)Ljava/lang/String;
Method	java/lang/Long.toHexString:(J)Ljava/lang/String;
Asciz	toBinaryString;
NameAndType	toBinaryString:(J)Ljava/lang/String;
Method	java/lang/Long.toBinaryString:(J)Ljava/lang/String;
Asciz	abs;
Asciz	()J;
Asciz	max;
Asciz	(J)J;
Asciz	y;
Asciz	min;
Asciz	to;
Asciz	(JJ)Lscala/collection/immutable/NumericRange$Inclusive;;
Asciz	scala/collection/immutable/Range$Long$;
class	scala/collection/immutable/Range$Long$
Asciz	MODULE$;
Asciz	Lscala/collection/immutable/Range$Long$;;
NameAndType	MODULE$:Lscala/collection/immutable/Range$Long$;
Field	scala/collection/immutable/Range$Long$.MODULE$:Lscala/collection/immutable/Range$Long$;
Asciz	inclusive;
Asciz	(JJJ)Lscala/collection/immutable/NumericRange$Inclusive;;
NameAndType	inclusive:(JJJ)Lscala/collection/immutable/NumericRange$Inclusive;
Method	scala/collection/immutable/Range$Long$.inclusive:(JJJ)Lscala/collection/immutable/NumericRange$Inclusive;
Asciz	end;
Asciz	step;
Asciz	(JJ)Lscala/collection/immutable/NumericRange$Inclusive<Ljava/lang/Long;>;;
Asciz	Signature;
Asciz	until;
Asciz	(JJ)Lscala/collection/immutable/NumericRange$Exclusive;;
Asciz	apply;
Asciz	(JJJ)Lscala/collection/immutable/NumericRange$Exclusive;;
NameAndType	apply:(JJJ)Lscala/collection/immutable/NumericRange$Exclusive;
Method	scala/collection/immutable/Range$Long$.apply:(JJJ)Lscala/collection/immutable/NumericRange$Exclusive;
Asciz	(JJ)Lscala/collection/immutable/NumericRange$Exclusive<Ljava/lang/Long;>;;
Asciz	self;
Asciz	()Ljava/lang/Object;;
Asciz	boxToLong;
Asciz	(J)Ljava/lang/Long;;
NameAndType	boxToLong:(J)Ljava/lang/Long;
Method	scala/runtime/BoxesRunTime.boxToLong:(J)Ljava/lang/Long;
Asciz	until$default$2;
Asciz	to$default$2;
Asciz	toString;
Asciz	(Lscala/Proxy;)Ljava/lang/String;;
NameAndType	toString:(Lscala/Proxy;)Ljava/lang/String;
Method	scala/Proxy$class.toString:(Lscala/Proxy;)Ljava/lang/String;
Asciz	equals;
Asciz	(Ljava/lang/Object;)Z;
Asciz	(Lscala/Proxy;Ljava/lang/Object;)Z;
NameAndType	equals:(Lscala/Proxy;Ljava/lang/Object;)Z
Method	scala/Proxy$class.equals:(Lscala/Proxy;Ljava/lang/Object;)Z
Asciz	hashCode;
Asciz	()I;
Asciz	(Lscala/Proxy;)I;
NameAndType	hashCode:(Lscala/Proxy;)I
Method	scala/Proxy$class.hashCode:(Lscala/Proxy;)I
Asciz	compareTo;
Asciz	(Lscala/math/Ordered;Ljava/lang/Object;)I;
NameAndType	compareTo:(Lscala/math/Ordered;Ljava/lang/Object;)I
Method	scala/math/Ordered$class.compareTo:(Lscala/math/Ordered;Ljava/lang/Object;)I
Asciz	$greater$eq;
Asciz	(Lscala/math/Ordered;Ljava/lang/Object;)Z;
NameAndType	$greater$eq:(Lscala/math/Ordered;Ljava/lang/Object;)Z
Method	scala/math/Ordered$class.$greater$eq:(Lscala/math/Ordered;Ljava/lang/Object;)Z
Asciz	$less$eq;
NameAndType	$less$eq:(Lscala/math/Ordered;Ljava/lang/Object;)Z
Method	scala/math/Ordered$class.$less$eq:(Lscala/math/Ordered;Ljava/lang/Object;)Z
Asciz	$greater;
NameAndType	$greater:(Lscala/math/Ordered;Ljava/lang/Object;)Z
Method	scala/math/Ordered$class.$greater:(Lscala/math/Ordered;Ljava/lang/Object;)Z
Asciz	$less;
NameAndType	$less:(Lscala/math/Ordered;Ljava/lang/Object;)Z
Method	scala/math/Ordered$class.$less:(Lscala/math/Ordered;Ljava/lang/Object;)Z
Asciz	Ljava/lang/Object;Lscala/Proxy;Lscala/math/Ordered<Ljava/lang/Long;>;Lscala/ScalaObject;;
Asciz	ScalaSig;
Asciz	InnerClasses;
Asciz	scala/collection/immutable/NumericRange$Exclusive;
class	scala/collection/immutable/NumericRange$Exclusive
Asciz	scala/collection/immutable/NumericRange;
class	scala/collection/immutable/NumericRange
Asciz	Exclusive;
Asciz	scala/collection/immutable/NumericRange$Inclusive;
class	scala/collection/immutable/NumericRange$Inclusive
Asciz	Inclusive;
Asciz	scala/Proxy;
class	scala/Proxy
Asciz	scala/math/Ordered;
class	scala/math/Ordered
Asciz	scala/ScalaObject;
class	scala/ScalaObject

{
private final long x;
  Signature: J

public scala.runtime.RichLong(long);
  Signature: (J)V
  Code:
   Stack=3, Locals=3, Args_size=2
	aload_0
	lload_1
	putfield	Field x:J
	aload_0
	invokespecial	Method java/lang/Object."<init>":()V
	aload_0
	invokestatic	Method scala/Proxy$class.$init$:(Lscala/Proxy;)V
	aload_0
	invokestatic	Method scala/math/Ordered$class.$init$:(Lscala/math/Ordered;)V
	return
  Labels:
  LocalVariableTable: 
   Start  Length  Slot  Name   Signature
   0      18      0    this       Lscala/runtime/RichLong;
   0      18      1    x       J


public int compare(java.lang.Object);
  Signature: (Ljava/lang/Object;)I
  Code:
   Stack=3, Locals=2, Args_size=2
	aload_0
	aload_1
	invokestatic	Method scala/runtime/BoxesRunTime.unboxToLong:(Ljava/lang/Object;)J
	invokevirtual	Method compare:(J)I
	ireturn
  Labels:
  LocalVariableTable: 
   Start  Length  Slot  Name   Signature
   0      9      0    this       Lscala/runtime/RichLong;
   0      9      1    that       Ljava/lang/Object;


public java.lang.String toOctalString();
  Signature: ()Ljava/lang/String;
  Code:
   Stack=2, Locals=1, Args_size=1
	aload_0
	getfield	Field x:J
	invokestatic	Method java/lang/Long.toOctalString:(J)Ljava/lang/String;
	areturn
  Labels:

public java.lang.String toHexString();
  Signature: ()Ljava/lang/String;
  Code:
   Stack=2, Locals=1, Args_size=1
	aload_0
	getfield	Field x:J
	invokestatic	Method java/lang/Long.toHexString:(J)Ljava/lang/String;
	areturn
  Labels:

public java.lang.String toBinaryString();
  Signature: ()Ljava/lang/String;
  Code:
   Stack=2, Locals=1, Args_size=1
	aload_0
	getfield	Field x:J
	invokestatic	Method java/lang/Long.toBinaryString:(J)Ljava/lang/String;
	areturn
  Labels:

public long abs();
  Signature: ()J
  Code:
   Stack=4, Locals=1, Args_size=1
	aload_0
	getfield	Field x:J
	lconst_0
	lcmp
	ifge	l1 // aload_0
	aload_0
	getfield	Field x:J
	lneg
	goto	l2 // lreturn
l1	aload_0
	getfield	Field x:J
l2	lreturn
  Labels:
   	l1 = 17 // aload_0
   	l2 = 21 // lreturn

public long max(long);
  Signature: (J)J
  Code:
   Stack=4, Locals=3, Args_size=2
	aload_0
	getfield	Field x:J
	lload_1
	lcmp
	ifle	l1 // lload_1
	aload_0
	getfield	Field x:J
	goto	l2 // lreturn
l1	lload_1
l2	lreturn
  Labels:
   	l1 = 16 // lload_1
   	l2 = 17 // lreturn
  LocalVariableTable: 
   Start  Length  Slot  Name   Signature
   0      18      0    this       Lscala/runtime/RichLong;
   0      18      1    y       J


public long min(long);
  Signature: (J)J
  Code:
   Stack=4, Locals=3, Args_size=2
	aload_0
	getfield	Field x:J
	lload_1
	lcmp
	ifge	l1 // lload_1
	aload_0
	getfield	Field x:J
	goto	l2 // lreturn
l1	lload_1
l2	lreturn
  Labels:
   	l1 = 16 // lload_1
   	l2 = 17 // lreturn
  LocalVariableTable: 
   Start  Length  Slot  Name   Signature
   0      18      0    this       Lscala/runtime/RichLong;
   0      18      1    y       J


public scala.collection.immutable.NumericRange$Inclusive to(long, long);
  Signature: (JJ)Lscala/collection/immutable/NumericRange$Inclusive;
  Code:
   Stack=7, Locals=5, Args_size=3
	getstatic	Field scala/collection/immutable/Range$Long$.MODULE$:Lscala/collection/immutable/Range$Long$;
	aload_0
	getfield	Field x:J
	lload_1
	lload_3
	invokevirtual	Method scala/collection/immutable/Range$Long$.inclusive:(JJJ)Lscala/collection/immutable/NumericRange$Inclusive;
	areturn
  Labels:
  LocalVariableTable: 
   Start  Length  Slot  Name   Signature
   0      13      0    this       Lscala/runtime/RichLong;
   0      13      1    end       J
   0      13      3    step       J

  Signature: length = 0x2
   00 4E 

public scala.collection.immutable.NumericRange$Exclusive until(long, long);
  Signature: (JJ)Lscala/collection/immutable/NumericRange$Exclusive;
  Code:
   Stack=7, Locals=5, Args_size=3
	getstatic	Field scala/collection/immutable/Range$Long$.MODULE$:Lscala/collection/immutable/Range$Long$;
	aload_0
	getfield	Field x:J
	lload_1
	lload_3
	invokevirtual	Method scala/collection/immutable/Range$Long$.apply:(JJJ)Lscala/collection/immutable/NumericRange$Exclusive;
	areturn
  Labels:
  LocalVariableTable: 
   Start  Length  Slot  Name   Signature
   0      13      0    this       Lscala/runtime/RichLong;
   0      13      1    end       J
   0      13      3    step       J

  Signature: length = 0x2
   00 56 

public int compare(long);
  Signature: (J)I
  Code:
   Stack=4, Locals=3, Args_size=2
	aload_0
	getfield	Field x:J
	lload_1
	lcmp
	ifge	l1 // aload_0
	iconst_m1
	goto	l2 // ireturn
l1	aload_0
	getfield	Field x:J
	lload_1
	lcmp
	ifle	l3 // iconst_0
	iconst_1
	goto	l2 // ireturn
l3	iconst_0
l2	ireturn
  Labels:
   	l1 = 13 // aload_0
   	l3 = 26 // iconst_0
   	l2 = 27 // ireturn
  LocalVariableTable: 
   Start  Length  Slot  Name   Signature
   0      28      0    this       Lscala/runtime/RichLong;
   0      28      1    y       J


public java.lang.Object self();
  Signature: ()Ljava/lang/Object;
  Code:
   Stack=2, Locals=3, Args_size=1
	aload_0
	getfield	Field x:J
	lstore_1
	lload_1
	invokestatic	Method scala/runtime/BoxesRunTime.boxToLong:(J)Ljava/lang/Long;
	areturn
  Labels:

public long until$default$2();
  Signature: ()J
  Code:
   Stack=2, Locals=1, Args_size=1
	lconst_1
	lreturn
  Labels:

public long to$default$2();
  Signature: ()J
  Code:
   Stack=2, Locals=1, Args_size=1
	lconst_1
	lreturn
  Labels:

public java.lang.String toString();
  Signature: ()Ljava/lang/String;
  Code:
   Stack=1, Locals=1, Args_size=1
	aload_0
	invokestatic	Method scala/Proxy$class.toString:(Lscala/Proxy;)Ljava/lang/String;
	areturn
  Labels:

public boolean equals(java.lang.Object);
  Signature: (Ljava/lang/Object;)Z
  Code:
   Stack=2, Locals=2, Args_size=2
	aload_0
	aload_1
	invokestatic	Method scala/Proxy$class.equals:(Lscala/Proxy;Ljava/lang/Object;)Z
	ireturn
  Labels:
  LocalVariableTable: 
   Start  Length  Slot  Name   Signature
   0      6      0    this       Lscala/runtime/RichLong;
   0      6      1    that       Ljava/lang/Object;


public int hashCode();
  Signature: ()I
  Code:
   Stack=1, Locals=1, Args_size=1
	aload_0
	invokestatic	Method scala/Proxy$class.hashCode:(Lscala/Proxy;)I
	ireturn
  Labels:

public int compareTo(java.lang.Object);
  Signature: (Ljava/lang/Object;)I
  Code:
   Stack=2, Locals=2, Args_size=2
	aload_0
	aload_1
	invokestatic	Method scala/math/Ordered$class.compareTo:(Lscala/math/Ordered;Ljava/lang/Object;)I
	ireturn
  Labels:
  LocalVariableTable: 
   Start  Length  Slot  Name   Signature
   0      6      0    this       Lscala/runtime/RichLong;
   0      6      1    that       Ljava/lang/Object;


public boolean $greater$eq(java.lang.Object);
  Signature: (Ljava/lang/Object;)Z
  Code:
   Stack=2, Locals=2, Args_size=2
	aload_0
	aload_1
	invokestatic	Method scala/math/Ordered$class.$greater$eq:(Lscala/math/Ordered;Ljava/lang/Object;)Z
	ireturn
  Labels:
  LocalVariableTable: 
   Start  Length  Slot  Name   Signature
   0      6      0    this       Lscala/runtime/RichLong;
   0      6      1    that       Ljava/lang/Object;


public boolean $less$eq(java.lang.Object);
  Signature: (Ljava/lang/Object;)Z
  Code:
   Stack=2, Locals=2, Args_size=2
	aload_0
	aload_1
	invokestatic	Method scala/math/Ordered$class.$less$eq:(Lscala/math/Ordered;Ljava/lang/Object;)Z
	ireturn
  Labels:
  LocalVariableTable: 
   Start  Length  Slot  Name   Signature
   0      6      0    this       Lscala/runtime/RichLong;
   0      6      1    that       Ljava/lang/Object;


public boolean $greater(java.lang.Object);
  Signature: (Ljava/lang/Object;)Z
  Code:
   Stack=2, Locals=2, Args_size=2
	aload_0
	aload_1
	invokestatic	Method scala/math/Ordered$class.$greater:(Lscala/math/Ordered;Ljava/lang/Object;)Z
	ireturn
  Labels:
  LocalVariableTable: 
   Start  Length  Slot  Name   Signature
   0      6      0    this       Lscala/runtime/RichLong;
   0      6      1    that       Ljava/lang/Object;


public boolean $less(java.lang.Object);
  Signature: (Ljava/lang/Object;)Z
  Code:
   Stack=2, Locals=2, Args_size=2
	aload_0
	aload_1
	invokestatic	Method scala/math/Ordered$class.$less:(Lscala/math/Ordered;Ljava/lang/Object;)Z
	ireturn
  Labels:
  LocalVariableTable: 
   Start  Length  Slot  Name   Signature
   0      6      0    this       Lscala/runtime/RichLong;
   0      6      1    that       Ljava/lang/Object;


}

