Compiled from "RichByte.scala"
public final class scala.runtime.RichByte extends java.lang.Object implements scala.Proxy,scala.math.Ordered,scala.ScalaObject
  SourceFile: "RichByte.scala"
  Signature: length = 0x2
   00 54 
  ScalaSig: length = 0x145
   05 00 3C 06 08 01 02 FFFFFF84 FFFFFF80 FFFFFF80 FFFFFF80 02 07 02 08 52
   69 63 68 42 79 74 65 0A 02 03 04 01 07 72 75 6E
   74 69 6D 65 0A 01 05 01 05 73 63 61 6C 61 03 00
   13 05 00 08 10 14 23 10 02 09 0E 0D 01 0A 0A 02
   0B 0C 01 04 6C 61 6E 67 0A 01 0D 01 04 6A 61 76
   61 09 02 0F 0A 02 06 4F 62 6A 65 63 74 10 02 11
   12 0D 01 04 09 02 13 04 02 05 50 72 6F 78 79 10
   03 15 1D 20 0E 02 16 1B 0E 02 17 1A 0D 01 18 0A
   02 19 06 01 06 3C 72 6F 6F 74 3E 09 01 05 09 02
   1C 04 01 07 70 61 63 6B 61 67 65 09 02 1E 1F 02
   07 4F 72 64 65 72 65 64 0A 02 1C 04 10 02 11 21
   09 02 22 04 02 04 42 79 74 65 10 02 11 24 09 02
   25 04 02 0B 53 63 61 6C 61 4F 62 6A 65 63 74 08
   08 27 00 FFFFFF82 FFFFFF80 FFFFFFA0 FFFFFF80 04 20 01 01 78 08 05 29 00
   FFFFFF84 00 2A 01 06 3C 69 6E 69 74 3E 14 02 2B 2D 10
   02 2C 00 0D 01 02 08 05 27 28 FFFFFFC0 00 20 08 05 2F
   00 FFFFFF84 00 30 01 04 73 65 6C 66 15 01 31 10 02 11
   32 09 02 33 04 02 03 41 6E 79 08 05 35 00 FFFFFF84 00
   36 01 07 63 6F 6D 70 61 72 65 14 02 37 3A 10 02
   11 38 09 02 39 04 02 03 49 6E 74 08 05 3B 34 FFFFFFC0
   00 20 01 01 79 
  minor version: 0
  major version: 49
  Constant pool:
Asciz	SourceFile;
Asciz	RichByte.scala;
Asciz	x;
Asciz	B;
Asciz	<init>;
Asciz	(B)V;
Asciz	Code;
Asciz	LineNumberTable;
Asciz	scala/runtime/RichByte;
class	scala/runtime/RichByte
NameAndType	x:B
Field	scala/runtime/RichByte.x:B
Asciz	java/lang/Object;
class	java/lang/Object
Asciz	()V;
NameAndType	"<init>":()V
Method	java/lang/Object."<init>":()V
Asciz	scala/Proxy$class;
class	scala/Proxy$class
Asciz	$init$;
Asciz	(Lscala/Proxy;)V;
NameAndType	$init$:(Lscala/Proxy;)V
Method	scala/Proxy$class.$init$:(Lscala/Proxy;)V
Asciz	scala/math/Ordered$class;
class	scala/math/Ordered$class
Asciz	(Lscala/math/Ordered;)V;
NameAndType	$init$:(Lscala/math/Ordered;)V
Method	scala/math/Ordered$class.$init$:(Lscala/math/Ordered;)V
Asciz	this;
Asciz	Lscala/runtime/RichByte;;
Asciz	LocalVariableTable;
Asciz	compare;
Asciz	(Ljava/lang/Object;)I;
Asciz	scala/runtime/BoxesRunTime;
class	scala/runtime/BoxesRunTime
Asciz	unboxToByte;
Asciz	(Ljava/lang/Object;)B;
NameAndType	unboxToByte:(Ljava/lang/Object;)B
Method	scala/runtime/BoxesRunTime.unboxToByte:(Ljava/lang/Object;)B
Asciz	(B)I;
NameAndType	compare:(B)I
Method	scala/runtime/RichByte.compare:(B)I
Asciz	that;
Asciz	Ljava/lang/Object;;
Asciz	y;
Asciz	self;
Asciz	()Ljava/lang/Object;;
Asciz	boxToByte;
Asciz	(B)Ljava/lang/Byte;;
NameAndType	boxToByte:(B)Ljava/lang/Byte;
Method	scala/runtime/BoxesRunTime.boxToByte:(B)Ljava/lang/Byte;
Asciz	toString;
Asciz	()Ljava/lang/String;;
Asciz	(Lscala/Proxy;)Ljava/lang/String;;
NameAndType	toString:(Lscala/Proxy;)Ljava/lang/String;
Method	scala/Proxy$class.toString:(Lscala/Proxy;)Ljava/lang/String;
Asciz	equals;
Asciz	(Ljava/lang/Object;)Z;
Asciz	(Lscala/Proxy;Ljava/lang/Object;)Z;
NameAndType	equals:(Lscala/Proxy;Ljava/lang/Object;)Z
Method	scala/Proxy$class.equals:(Lscala/Proxy;Ljava/lang/Object;)Z
Asciz	hashCode;
Asciz	()I;
Asciz	(Lscala/Proxy;)I;
NameAndType	hashCode:(Lscala/Proxy;)I
Method	scala/Proxy$class.hashCode:(Lscala/Proxy;)I
Asciz	compareTo;
Asciz	(Lscala/math/Ordered;Ljava/lang/Object;)I;
NameAndType	compareTo:(Lscala/math/Ordered;Ljava/lang/Object;)I
Method	scala/math/Ordered$class.compareTo:(Lscala/math/Ordered;Ljava/lang/Object;)I
Asciz	$greater$eq;
Asciz	(Lscala/math/Ordered;Ljava/lang/Object;)Z;
NameAndType	$greater$eq:(Lscala/math/Ordered;Ljava/lang/Object;)Z
Method	scala/math/Ordered$class.$greater$eq:(Lscala/math/Ordered;Ljava/lang/Object;)Z
Asciz	$less$eq;
NameAndType	$less$eq:(Lscala/math/Ordered;Ljava/lang/Object;)Z
Method	scala/math/Ordered$class.$less$eq:(Lscala/math/Ordered;Ljava/lang/Object;)Z
Asciz	$greater;
NameAndType	$greater:(Lscala/math/Ordered;Ljava/lang/Object;)Z
Method	scala/math/Ordered$class.$greater:(Lscala/math/Ordered;Ljava/lang/Object;)Z
Asciz	$less;
NameAndType	$less:(Lscala/math/Ordered;Ljava/lang/Object;)Z
Method	scala/math/Ordered$class.$less:(Lscala/math/Ordered;Ljava/lang/Object;)Z
Asciz	Ljava/lang/Object;Lscala/Proxy;Lscala/math/Ordered<Ljava/lang/Byte;>;Lscala/ScalaObject;;
Asciz	Signature;
Asciz	ScalaSig;
Asciz	scala/Proxy;
class	scala/Proxy
Asciz	scala/math/Ordered;
class	scala/math/Ordered
Asciz	scala/ScalaObject;
class	scala/ScalaObject

{
private final byte x;
  Signature: B

public scala.runtime.RichByte(byte);
  Signature: (B)V
  Code:
   Stack=2, Locals=2, Args_size=2
	aload_0
	iload_1
	putfield	Field x:B
	aload_0
	invokespecial	Method java/lang/Object."<init>":()V
	aload_0
	invokestatic	Method scala/Proxy$class.$init$:(Lscala/Proxy;)V
	aload_0
	invokestatic	Method scala/math/Ordered$class.$init$:(Lscala/math/Ordered;)V
	return
  Labels:
  LocalVariableTable: 
   Start  Length  Slot  Name   Signature
   0      18      0    this       Lscala/runtime/RichByte;
   0      18      1    x       B


public int compare(java.lang.Object);
  Signature: (Ljava/lang/Object;)I
  Code:
   Stack=2, Locals=2, Args_size=2
	aload_0
	aload_1
	invokestatic	Method scala/runtime/BoxesRunTime.unboxToByte:(Ljava/lang/Object;)B
	invokevirtual	Method compare:(B)I
	ireturn
  Labels:
  LocalVariableTable: 
   Start  Length  Slot  Name   Signature
   0      9      0    this       Lscala/runtime/RichByte;
   0      9      1    that       Ljava/lang/Object;


public int compare(byte);
  Signature: (B)I
  Code:
   Stack=2, Locals=2, Args_size=2
	aload_0
	getfield	Field x:B
	iload_1
	if_icmpge	l1 // aload_0
	iconst_m1
	goto	l2 // ireturn
l1	aload_0
	getfield	Field x:B
	iload_1
	if_icmple	l3 // iconst_0
	iconst_1
	goto	l2 // ireturn
l3	iconst_0
l2	ireturn
  Labels:
   	l1 = 12 // aload_0
   	l3 = 24 // iconst_0
   	l2 = 25 // ireturn
  LocalVariableTable: 
   Start  Length  Slot  Name   Signature
   0      26      0    this       Lscala/runtime/RichByte;
   0      26      1    y       B


public java.lang.Object self();
  Signature: ()Ljava/lang/Object;
  Code:
   Stack=1, Locals=2, Args_size=1
	aload_0
	getfield	Field x:B
	istore_1
	iload_1
	invokestatic	Method scala/runtime/BoxesRunTime.boxToByte:(B)Ljava/lang/Byte;
	areturn
  Labels:

public java.lang.String toString();
  Signature: ()Ljava/lang/String;
  Code:
   Stack=1, Locals=1, Args_size=1
	aload_0
	invokestatic	Method scala/Proxy$class.toString:(Lscala/Proxy;)Ljava/lang/String;
	areturn
  Labels:

public boolean equals(java.lang.Object);
  Signature: (Ljava/lang/Object;)Z
  Code:
   Stack=2, Locals=2, Args_size=2
	aload_0
	aload_1
	invokestatic	Method scala/Proxy$class.equals:(Lscala/Proxy;Ljava/lang/Object;)Z
	ireturn
  Labels:
  LocalVariableTable: 
   Start  Length  Slot  Name   Signature
   0      6      0    this       Lscala/runtime/RichByte;
   0      6      1    that       Ljava/lang/Object;


public int hashCode();
  Signature: ()I
  Code:
   Stack=1, Locals=1, Args_size=1
	aload_0
	invokestatic	Method scala/Proxy$class.hashCode:(Lscala/Proxy;)I
	ireturn
  Labels:

public int compareTo(java.lang.Object);
  Signature: (Ljava/lang/Object;)I
  Code:
   Stack=2, Locals=2, Args_size=2
	aload_0
	aload_1
	invokestatic	Method scala/math/Ordered$class.compareTo:(Lscala/math/Ordered;Ljava/lang/Object;)I
	ireturn
  Labels:
  LocalVariableTable: 
   Start  Length  Slot  Name   Signature
   0      6      0    this       Lscala/runtime/RichByte;
   0      6      1    that       Ljava/lang/Object;


public boolean $greater$eq(java.lang.Object);
  Signature: (Ljava/lang/Object;)Z
  Code:
   Stack=2, Locals=2, Args_size=2
	aload_0
	aload_1
	invokestatic	Method scala/math/Ordered$class.$greater$eq:(Lscala/math/Ordered;Ljava/lang/Object;)Z
	ireturn
  Labels:
  LocalVariableTable: 
   Start  Length  Slot  Name   Signature
   0      6      0    this       Lscala/runtime/RichByte;
   0      6      1    that       Ljava/lang/Object;


public boolean $less$eq(java.lang.Object);
  Signature: (Ljava/lang/Object;)Z
  Code:
   Stack=2, Locals=2, Args_size=2
	aload_0
	aload_1
	invokestatic	Method scala/math/Ordered$class.$less$eq:(Lscala/math/Ordered;Ljava/lang/Object;)Z
	ireturn
  Labels:
  LocalVariableTable: 
   Start  Length  Slot  Name   Signature
   0      6      0    this       Lscala/runtime/RichByte;
   0      6      1    that       Ljava/lang/Object;


public boolean $greater(java.lang.Object);
  Signature: (Ljava/lang/Object;)Z
  Code:
   Stack=2, Locals=2, Args_size=2
	aload_0
	aload_1
	invokestatic	Method scala/math/Ordered$class.$greater:(Lscala/math/Ordered;Ljava/lang/Object;)Z
	ireturn
  Labels:
  LocalVariableTable: 
   Start  Length  Slot  Name   Signature
   0      6      0    this       Lscala/runtime/RichByte;
   0      6      1    that       Ljava/lang/Object;


public boolean $less(java.lang.Object);
  Signature: (Ljava/lang/Object;)Z
  Code:
   Stack=2, Locals=2, Args_size=2
	aload_0
	aload_1
	invokestatic	Method scala/math/Ordered$class.$less:(Lscala/math/Ordered;Ljava/lang/Object;)Z
	ireturn
  Labels:
  LocalVariableTable: 
   Start  Length  Slot  Name   Signature
   0      6      0    this       Lscala/runtime/RichByte;
   0      6      1    that       Ljava/lang/Object;


}

