Compiled from "Tree.scala"
public class scala.reflect.Assign extends scala.reflect.Tree implements scala.ScalaObject,scala.Product,java.io.Serializable
  SourceFile: "Tree.scala"
  ScalaSig: length = 0x358
   05 00 7C 06 08 01 02 FFFFFF84 FFFFFF80 FFFFFF80 FFFFFF80 40 07 02 06 41
   73 73 69 67 6E 0A 02 03 04 01 07 72 65 66 6C 65
   63 74 0A 01 05 01 05 73 63 61 6C 61 03 00 13 04
   00 08 0C 10 10 02 09 0A 0D 01 02 09 02 0B 02 02
   04 54 72 65 65 10 02 0D 0E 0D 01 04 09 02 0F 04
   02 0B 53 63 61 6C 61 4F 62 6A 65 63 74 10 02 0D
   11 09 02 12 04 02 07 50 72 6F 64 75 63 74 08 08
   14 00 FFFFFF82 FFFFFFCA FFFFFF80 FFFFFF84 00 15 01 0B 64 65 73 74 69 6E
   61 74 69 6F 6E 15 01 08 08 08 17 00 FFFFFF82 FFFFFF88 FFFFFFA0 FFFFFF80
   04 08 01 0C 64 65 73 74 69 6E 61 74 69 6F 6E 20
   08 08 19 00 FFFFFF82 FFFFFFCA FFFFFF80 FFFFFF84 00 15 01 06 73 6F 75 72
   63 65 08 08 1B 00 FFFFFF82 FFFFFF88 FFFFFFA0 FFFFFF80 04 08 01 07 73 6F
   75 72 63 65 20 08 05 1D 00 FFFFFF84 00 1E 01 06 3C 69
   6E 69 74 3E 14 03 1F 20 21 10 02 09 00 08 05 14
   1C FFFFFFC0 00 08 08 05 19 1C FFFFFFC0 00 08 08 07 23 00 FFFFFF81
   FFFFFF80 FFFFFF84 00 24 01 04 63 6F 70 79 14 03 1F 25 28 08
   08 26 14 22 FFFFFF90 FFFFFF80 FFFFFFC0 00 08 08 07 27 00 FFFFFF91 FFFFFF80 FFFFFF84
   00 15 01 0E 63 6F 70 79 24 64 65 66 61 75 6C 74
   24 31 08 08 29 19 22 FFFFFF90 FFFFFF80 FFFFFFC0 00 08 08 07 2A 00
   FFFFFF91 FFFFFF80 FFFFFF84 00 15 01 0E 63 6F 70 79 24 64 65 66 61
   75 6C 74 24 32 08 08 2C 00 FFFFFF84 FFFFFF80 FFFFFF80 FFFFFF84 20 2D 01
   08 68 61 73 68 43 6F 64 65 14 01 2E 10 02 0D 2F
   09 02 30 04 02 03 49 6E 74 08 08 32 00 FFFFFF84 FFFFFF80 FFFFFF80
   FFFFFF84 20 33 01 08 74 6F 53 74 72 69 6E 67 14 01 34
   10 02 35 38 0E 02 0D 36 09 02 37 04 01 06 50 72
   65 64 65 66 09 02 39 3A 02 06 53 74 72 69 6E 67
   0A 02 37 04 08 08 3C 00 FFFFFF84 FFFFFF80 FFFFFF80 FFFFFF84 20 3D 01 06
   65 71 75 61 6C 73 14 02 3E 41 10 02 0D 3F 09 02
   40 04 02 07 42 6F 6F 6C 65 61 6E 08 07 42 3B FFFFFF81
   FFFFFF80 FFFFFFC0 00 43 01 03 78 24 31 10 02 0D 44 09 02 45
   04 02 03 41 6E 79 08 08 47 00 FFFFFF84 FFFFFF80 FFFFFF80 FFFFFF84 20 48
   01 0D 70 72 6F 64 75 63 74 50 72 65 66 69 78 15
   01 49 10 02 4A 4F 0D 01 4B 0A 02 4C 4D 01 04 6C
   61 6E 67 0A 01 4E 01 04 6A 61 76 61 09 02 39 4B
   08 08 51 00 FFFFFF84 FFFFFF80 FFFFFF80 FFFFFF84 20 52 01 0C 70 72 6F 64
   75 63 74 41 72 69 74 79 15 01 2E 08 08 54 00 FFFFFF84
   FFFFFF80 FFFFFF80 FFFFFF84 20 55 01 0E 70 72 6F 64 75 63 74 45 6C
   65 6D 65 6E 74 14 02 43 56 08 07 42 53 FFFFFF81 FFFFFF80 FFFFFFC0
   00 2E 08 08 58 00 FFFFFF84 FFFFFF80 FFFFFF80 FFFFFF84 20 59 01 08 63 61
   6E 45 71 75 61 6C 14 02 3E 5A 08 07 42 57 FFFFFF81 FFFFFF80
   FFFFFFC0 00 43 28 02 00 5C 10 02 0D 5D 09 02 5E 04 02
   0C 73 65 72 69 61 6C 69 7A 61 62 6C 65 07 07 60
   02 FFFFFF81 FFFFFF80 FFFFFF88 02 61 01 06 41 73 73 69 67 6E 10 02
   09 62 06 08 01 02 FFFFFF84 FFFFFF81 FFFFFF80 FFFFFF88 02 63 13 04 62 64
   67 0C 10 02 4A 65 09 02 66 4B 02 06 4F 62 6A 65
   63 74 10 05 0D 68 08 08 1F 09 02 69 04 02 09 46
   75 6E 63 74 69 6F 6E 32 08 05 1D 62 FFFFFF84 00 6B 14
   01 61 08 07 6D 62 FFFFFF81 FFFFFF80 FFFFFF84 40 6E 01 05 61 70 70
   6C 79 14 03 1F 6F 70 08 05 14 6C FFFFFFC0 00 08 08 05
   19 6C FFFFFFC0 00 08 08 07 72 62 FFFFFF81 FFFFFF80 FFFFFF84 40 73 01 07
   75 6E 61 70 70 6C 79 14 02 74 7A 10 03 0D 75 77
   09 02 76 04 02 04 53 6F 6D 65 10 04 0D 78 08 08
   09 02 79 04 02 06 54 75 70 6C 65 32 08 05 7B 71
   FFFFFFC0 00 1F 01 03 78 24 30 
  minor version: 0
  major version: 49
  Constant pool:
const #1 = Asciz	SourceFile;
const #2 = Asciz	Tree.scala;
const #3 = Asciz	source;
const #4 = Asciz	Lscala/reflect/Tree;;
const #5 = Asciz	destination;
const #6 = Asciz	<init>;
const #7 = Asciz	(Lscala/reflect/Tree;Lscala/reflect/Tree;)V;
const #8 = Asciz	Code;
const #9 = Asciz	LineNumberTable;
const #10 = Asciz	scala/reflect/Assign;
const #11 = class	#10;	//  scala/reflect/Assign
const #12 = NameAndType	#5:#4;//  destination:Lscala/reflect/Tree;
const #13 = Field	#11.#12;	//  scala/reflect/Assign.destination:Lscala/reflect/Tree;
const #14 = NameAndType	#3:#4;//  source:Lscala/reflect/Tree;
const #15 = Field	#11.#14;	//  scala/reflect/Assign.source:Lscala/reflect/Tree;
const #16 = Asciz	scala/reflect/Tree;
const #17 = class	#16;	//  scala/reflect/Tree
const #18 = Asciz	()V;
const #19 = NameAndType	#6:#18;//  "<init>":()V
const #20 = Method	#17.#19;	//  scala/reflect/Tree."<init>":()V
const #21 = Asciz	scala/Product$class;
const #22 = class	#21;	//  scala/Product$class
const #23 = Asciz	$init$;
const #24 = Asciz	(Lscala/Product;)V;
const #25 = NameAndType	#23:#24;//  $init$:(Lscala/Product;)V
const #26 = Method	#22.#25;	//  scala/Product$class.$init$:(Lscala/Product;)V
const #27 = Asciz	this;
const #28 = Asciz	Lscala/reflect/Assign;;
const #29 = Asciz	LocalVariableTable;
const #30 = Asciz	gd11$1;
const #31 = Asciz	(Lscala/reflect/Tree;Lscala/reflect/Tree;)Z;
const #32 = Asciz	()Lscala/reflect/Tree;;
const #33 = NameAndType	#5:#32;//  destination:()Lscala/reflect/Tree;
const #34 = Method	#11.#33;	//  scala/reflect/Assign.destination:()Lscala/reflect/Tree;
const #35 = Asciz	java/lang/Object;
const #36 = class	#35;	//  java/lang/Object
const #37 = Asciz	equals;
const #38 = Asciz	(Ljava/lang/Object;)Z;
const #39 = NameAndType	#37:#38;//  equals:(Ljava/lang/Object;)Z
const #40 = Method	#36.#39;	//  java/lang/Object.equals:(Ljava/lang/Object;)Z
const #41 = NameAndType	#3:#32;//  source:()Lscala/reflect/Tree;
const #42 = Method	#11.#41;	//  scala/reflect/Assign.source:()Lscala/reflect/Tree;
const #43 = Asciz	canEqual;
const #44 = Asciz	productElement;
const #45 = Asciz	(I)Ljava/lang/Object;;
const #46 = Asciz	java/lang/IndexOutOfBoundsException;
const #47 = class	#46;	//  java/lang/IndexOutOfBoundsException
const #48 = Asciz	scala/runtime/BoxesRunTime;
const #49 = class	#48;	//  scala/runtime/BoxesRunTime
const #50 = Asciz	boxToInteger;
const #51 = Asciz	(I)Ljava/lang/Integer;;
const #52 = NameAndType	#50:#51;//  boxToInteger:(I)Ljava/lang/Integer;
const #53 = Method	#49.#52;	//  scala/runtime/BoxesRunTime.boxToInteger:(I)Ljava/lang/Integer;
const #54 = Asciz	toString;
const #55 = Asciz	()Ljava/lang/String;;
const #56 = NameAndType	#54:#55;//  toString:()Ljava/lang/String;
const #57 = Method	#36.#56;	//  java/lang/Object.toString:()Ljava/lang/String;
const #58 = Asciz	(Ljava/lang/String;)V;
const #59 = NameAndType	#6:#58;//  "<init>":(Ljava/lang/String;)V
const #60 = Method	#47.#59;	//  java/lang/IndexOutOfBoundsException."<init>":(Ljava/lang/String;)V
const #61 = Asciz	temp52;
const #62 = Asciz	I;
const #63 = Asciz	productArity;
const #64 = Asciz	()I;
const #65 = Asciz	productPrefix;
const #66 = Asciz	Assign;
const #67 = String	#66;	//  Assign
const #68 = NameAndType	#30:#31;//  gd11$1:(Lscala/reflect/Tree;Lscala/reflect/Tree;)Z
const #69 = Method	#11.#68;	//  scala/reflect/Assign.gd11$1:(Lscala/reflect/Tree;Lscala/reflect/Tree;)Z
const #70 = Asciz	scala/Product;
const #71 = class	#70;	//  scala/Product
const #72 = NameAndType	#43:#38;//  canEqual:(Ljava/lang/Object;)Z
const #73 = InterfaceMethod	#71.#72;	//  scala/Product.canEqual:(Ljava/lang/Object;)Z
const #74 = Asciz	temp48;
const #75 = Asciz	Ljava/lang/Object;;
const #76 = Asciz	temp49;
const #77 = Asciz	temp50;
const #78 = Asciz	temp51;
const #79 = Asciz	source$1;
const #80 = Asciz	destination$1;
const #81 = Asciz	scala/runtime/ScalaRunTime$;
const #82 = class	#81;	//  scala/runtime/ScalaRunTime$
const #83 = Asciz	MODULE$;
const #84 = Asciz	Lscala/runtime/ScalaRunTime$;;
const #85 = NameAndType	#83:#84;//  MODULE$:Lscala/runtime/ScalaRunTime$;
const #86 = Field	#82.#85;	//  scala/runtime/ScalaRunTime$.MODULE$:Lscala/runtime/ScalaRunTime$;
const #87 = Asciz	_toString;
const #88 = Asciz	(Lscala/Product;)Ljava/lang/String;;
const #89 = NameAndType	#87:#88;//  _toString:(Lscala/Product;)Ljava/lang/String;
const #90 = Method	#82.#89;	//  scala/runtime/ScalaRunTime$._toString:(Lscala/Product;)Ljava/lang/String;
const #91 = Asciz	hashCode;
const #92 = Asciz	_hashCode;
const #93 = Asciz	(Lscala/Product;)I;
const #94 = NameAndType	#92:#93;//  _hashCode:(Lscala/Product;)I
const #95 = Method	#82.#94;	//  scala/runtime/ScalaRunTime$._hashCode:(Lscala/Product;)I
const #96 = Asciz	copy$default$1;
const #97 = Asciz	copy$default$2;
const #98 = Asciz	copy;
const #99 = Asciz	(Lscala/reflect/Tree;Lscala/reflect/Tree;)Lscala/reflect/Assign;;
const #100 = NameAndType	#6:#7;//  "<init>":(Lscala/reflect/Tree;Lscala/reflect/Tree;)V
const #101 = Method	#11.#100;	//  scala/reflect/Assign."<init>":(Lscala/reflect/Tree;Lscala/reflect/Tree;)V
const #102 = Asciz	productElements;
const #103 = Asciz	()Lscala/collection/Iterator;;
const #104 = Asciz	(Lscala/Product;)Lscala/collection/Iterator;;
const #105 = NameAndType	#102:#104;//  productElements:(Lscala/Product;)Lscala/collection/Iterator;
const #106 = Method	#22.#105;	//  scala/Product$class.productElements:(Lscala/Product;)Lscala/collection/Iterator;
const #107 = Asciz	productIterator;
const #108 = NameAndType	#107:#104;//  productIterator:(Lscala/Product;)Lscala/collection/Iterator;
const #109 = Method	#22.#108;	//  scala/Product$class.productIterator:(Lscala/Product;)Lscala/collection/Iterator;
const #110 = Asciz	ScalaSig;
const #111 = Asciz	scala/ScalaObject;
const #112 = class	#111;	//  scala/ScalaObject
const #113 = Asciz	java/io/Serializable;
const #114 = class	#113;	//  java/io/Serializable

{
public scala.reflect.Assign(scala.reflect.Tree, scala.reflect.Tree);
  Code:
   Stack=2, Locals=3, Args_size=3
   0:	aload_0
   1:	aload_1
   2:	putfield	#13; //Field destination:Lscala/reflect/Tree;
   5:	aload_0
   6:	aload_2
   7:	putfield	#15; //Field source:Lscala/reflect/Tree;
   10:	aload_0
   11:	invokespecial	#20; //Method scala/reflect/Tree."<init>":()V
   14:	aload_0
   15:	invokestatic	#26; //Method scala/Product$class.$init$:(Lscala/Product;)V
   18:	return
  LineNumberTable: 
   line 38: 0

  LocalVariableTable: 
   Start  Length  Slot  Name   Signature
   0      19      0    this       Lscala/reflect/Assign;
   0      19      1    destination       Lscala/reflect/Tree;
   0      19      2    source       Lscala/reflect/Tree;


public boolean canEqual(java.lang.Object);
  Code:
   Stack=1, Locals=2, Args_size=2
   0:	aload_1
   1:	instanceof	#11; //class scala/reflect/Assign
   4:	ireturn
  LineNumberTable: 
   line 38: 0


public java.lang.Object productElement(int);
  Code:
   Stack=3, Locals=3, Args_size=2
   0:	iload_1
   1:	istore_2
   2:	iload_2
   3:	tableswitch{ //0 to 1
		0: 46;
		1: 39;
		default: 24 }
   24:	new	#47; //class java/lang/IndexOutOfBoundsException
   27:	dup
   28:	iload_1
   29:	invokestatic	#53; //Method scala/runtime/BoxesRunTime.boxToInteger:(I)Ljava/lang/Integer;
   32:	invokevirtual	#57; //Method java/lang/Object.toString:()Ljava/lang/String;
   35:	invokespecial	#60; //Method java/lang/IndexOutOfBoundsException."<init>":(Ljava/lang/String;)V
   38:	athrow
   39:	aload_0
   40:	invokevirtual	#42; //Method source:()Lscala/reflect/Tree;
   43:	goto	50
   46:	aload_0
   47:	invokevirtual	#34; //Method destination:()Lscala/reflect/Tree;
   50:	areturn
  LineNumberTable: 
   line 38: 0

  LocalVariableTable: 
   Start  Length  Slot  Name   Signature
   0      51      0    this       Lscala/reflect/Assign;
   2      49      2    temp52       I


public int productArity();
  Code:
   Stack=1, Locals=1, Args_size=1
   0:	iconst_2
   1:	ireturn
  LineNumberTable: 
   line 38: 0


public java.lang.String productPrefix();
  Code:
   Stack=1, Locals=1, Args_size=1
   0:	ldc	#67; //String Assign
   2:	areturn
  LineNumberTable: 
   line 38: 0


public boolean equals(java.lang.Object);
  Code:
   Stack=3, Locals=8, Args_size=2
   0:	aload_0
   1:	aload_1
   2:	if_acmpeq	75
   5:	aload_1
   6:	astore_2
   7:	aload_2
   8:	instanceof	#11; //class scala/reflect/Assign
   11:	ifeq	71
   14:	aload_2
   15:	checkcast	#11; //class scala/reflect/Assign
   18:	astore_3
   19:	aload_3
   20:	invokevirtual	#34; //Method destination:()Lscala/reflect/Tree;
   23:	astore	4
   25:	aload_3
   26:	invokevirtual	#42; //Method source:()Lscala/reflect/Tree;
   29:	astore	5
   31:	aload	5
   33:	astore	6
   35:	aload	4
   37:	astore	7
   39:	aload_0
   40:	aload	6
   42:	aload	7
   44:	invokespecial	#69; //Method gd11$1:(Lscala/reflect/Tree;Lscala/reflect/Tree;)Z
   47:	ifeq	67
   50:	aload	5
   52:	astore	6
   54:	aload_1
   55:	checkcast	#11; //class scala/reflect/Assign
   58:	aload_0
   59:	invokeinterface	#73,  2; //InterfaceMethod scala/Product.canEqual:(Ljava/lang/Object;)Z
   64:	goto	72
   67:	iconst_0
   68:	goto	72
   71:	iconst_0
   72:	ifeq	79
   75:	iconst_1
   76:	goto	80
   79:	iconst_0
   80:	ireturn
  LineNumberTable: 
   line 38: 0
   line 26: 67
   line 38: 72

  LocalVariableTable: 
   Start  Length  Slot  Name   Signature
   0      81      0    this       Lscala/reflect/Assign;
   7      68      2    temp48       Ljava/lang/Object;
   19      52      3    temp49       Lscala/reflect/Assign;
   25      46      4    temp50       Lscala/reflect/Tree;
   31      40      5    temp51       Lscala/reflect/Tree;
   35      15      6    source$1       Lscala/reflect/Tree;
   54      10      6    source$1       Lscala/reflect/Tree;
   50      21      6    source$1       Lscala/reflect/Tree;
   39      32      7    destination$1       Lscala/reflect/Tree;


public java.lang.String toString();
  Code:
   Stack=2, Locals=1, Args_size=1
   0:	getstatic	#86; //Field scala/runtime/ScalaRunTime$.MODULE$:Lscala/runtime/ScalaRunTime$;
   3:	aload_0
   4:	invokevirtual	#90; //Method scala/runtime/ScalaRunTime$._toString:(Lscala/Product;)Ljava/lang/String;
   7:	areturn
  LineNumberTable: 
   line 38: 0


public int hashCode();
  Code:
   Stack=2, Locals=1, Args_size=1
   0:	getstatic	#86; //Field scala/runtime/ScalaRunTime$.MODULE$:Lscala/runtime/ScalaRunTime$;
   3:	aload_0
   4:	invokevirtual	#95; //Method scala/runtime/ScalaRunTime$._hashCode:(Lscala/Product;)I
   7:	ireturn
  LineNumberTable: 
   line 38: 0


public scala.reflect.Tree copy$default$1();
  Code:
   Stack=1, Locals=1, Args_size=1
   0:	aload_0
   1:	invokevirtual	#34; //Method destination:()Lscala/reflect/Tree;
   4:	areturn
  LineNumberTable: 
   line 38: 0


public scala.reflect.Tree copy$default$2();
  Code:
   Stack=1, Locals=1, Args_size=1
   0:	aload_0
   1:	invokevirtual	#42; //Method source:()Lscala/reflect/Tree;
   4:	areturn
  LineNumberTable: 
   line 38: 0


public scala.reflect.Assign copy(scala.reflect.Tree, scala.reflect.Tree);
  Code:
   Stack=4, Locals=3, Args_size=3
   0:	new	#11; //class scala/reflect/Assign
   3:	dup
   4:	aload_1
   5:	aload_2
   6:	invokespecial	#101; //Method "<init>":(Lscala/reflect/Tree;Lscala/reflect/Tree;)V
   9:	areturn
  LineNumberTable: 
   line 38: 0

  LocalVariableTable: 
   Start  Length  Slot  Name   Signature
   0      10      0    this       Lscala/reflect/Assign;
   0      10      1    destination       Lscala/reflect/Tree;
   0      10      2    source       Lscala/reflect/Tree;


public scala.reflect.Tree source();
  Code:
   Stack=1, Locals=1, Args_size=1
   0:	aload_0
   1:	getfield	#15; //Field source:Lscala/reflect/Tree;
   4:	areturn
  LineNumberTable: 
   line 38: 0


public scala.reflect.Tree destination();
  Code:
   Stack=1, Locals=1, Args_size=1
   0:	aload_0
   1:	getfield	#13; //Field destination:Lscala/reflect/Tree;
   4:	areturn
  LineNumberTable: 
   line 38: 0


public scala.collection.Iterator productElements();
  Code:
   Stack=1, Locals=1, Args_size=1
   0:	aload_0
   1:	invokestatic	#106; //Method scala/Product$class.productElements:(Lscala/Product;)Lscala/collection/Iterator;
   4:	areturn
  LineNumberTable: 
   line 38: 0


public scala.collection.Iterator productIterator();
  Code:
   Stack=1, Locals=1, Args_size=1
   0:	aload_0
   1:	invokestatic	#109; //Method scala/Product$class.productIterator:(Lscala/Product;)Lscala/collection/Iterator;
   4:	areturn
  LineNumberTable: 
   line 38: 0


}

