Compiled from "Tree.scala"
public class scala.reflect.DefDef extends scala.reflect.Tree implements scala.ScalaObject,scala.Product,java.io.Serializable
  SourceFile: "Tree.scala"
  ScalaSig: length = 0x486
   05 00 FFFFFF81 24 06 08 01 02 FFFFFF84 FFFFFF80 FFFFFF80 FFFFFF80 40 07 02 06
   44 65 66 44 65 66 0A 02 03 04 01 07 72 65 66 6C
   65 63 74 0A 01 05 01 05 73 63 61 6C 61 03 00 13
   04 00 08 0C 10 10 02 09 0A 0D 01 02 09 02 0B 02
   02 04 54 72 65 65 10 02 0D 0E 0D 01 04 09 02 0F
   04 02 0B 53 63 61 6C 61 4F 62 6A 65 63 74 10 02
   0D 11 09 02 12 04 02 07 50 72 6F 64 75 63 74 08
   08 14 00 FFFFFF82 FFFFFFCA FFFFFF80 FFFFFF84 00 15 01 03 73 79 6D 15 01
   16 10 02 09 17 09 02 18 02 02 06 53 79 6D 62 6F
   6C 08 08 1A 00 FFFFFF82 FFFFFF88 FFFFFFA0 FFFFFF80 04 16 01 04 73 79 6D
   20 08 08 1C 00 FFFFFF82 FFFFFFCA FFFFFF80 FFFFFF84 00 1D 01 08 76 70 61
   72 61 6D 73 73 15 01 1E 10 03 1F 27 2A 0E 02 20
   25 0E 02 21 24 0D 01 22 0A 02 23 06 01 06 3C 72
   6F 6F 74 3E 09 01 05 09 02 26 04 01 07 70 61 63
   6B 61 67 65 09 02 28 29 02 04 4C 69 73 74 0A 02
   26 04 10 03 1F 27 08 08 08 2C 00 FFFFFF82 FFFFFF88 FFFFFFA0 FFFFFF80 04
   1E 01 09 76 70 61 72 61 6D 73 73 20 08 08 2E 00
   FFFFFF82 FFFFFFCA FFFFFF80 FFFFFF84 00 2F 01 03 72 65 74 15 01 30 10 02
   09 31 09 02 32 02 02 04 54 79 70 65 08 08 34 00
   FFFFFF82 FFFFFF88 FFFFFFA0 FFFFFF80 04 30 01 04 72 65 74 20 08 08 36 00
   FFFFFF82 FFFFFFCA FFFFFF80 FFFFFF84 00 37 01 03 72 68 73 15 01 08 08 08
   39 00 FFFFFF82 FFFFFF88 FFFFFFA0 FFFFFF80 04 08 01 04 72 68 73 20 08 05
   3B 00 FFFFFF84 00 3C 01 06 3C 69 6E 69 74 3E 14 05 3D
   3E 3F 40 41 10 02 09 00 08 05 14 3A FFFFFFC0 00 16 08
   05 1C 3A FFFFFFC0 00 1E 08 05 2E 3A FFFFFFC0 00 30 08 05 36
   3A FFFFFFC0 00 08 08 07 43 00 FFFFFF81 FFFFFF80 FFFFFF84 00 44 01 04 63
   6F 70 79 14 05 3D 45 48 4B 4E 08 08 46 14 42 FFFFFF90
   FFFFFF80 FFFFFFC0 00 16 08 07 47 00 FFFFFF91 FFFFFF80 FFFFFF84 00 15 01 0E 63
   6F 70 79 24 64 65 66 61 75 6C 74 24 31 08 08 49
   1C 42 FFFFFF90 FFFFFF80 FFFFFFC0 00 1E 08 07 4A 00 FFFFFF91 FFFFFF80 FFFFFF84 00 1D
   01 0E 63 6F 70 79 24 64 65 66 61 75 6C 74 24 32
   08 08 4C 2E 42 FFFFFF90 FFFFFF80 FFFFFFC0 00 30 08 07 4D 00 FFFFFF91 FFFFFF80
   FFFFFF84 00 2F 01 0E 63 6F 70 79 24 64 65 66 61 75 6C
   74 24 33 08 08 4F 36 42 FFFFFF90 FFFFFF80 FFFFFFC0 00 08 08 07 50
   00 FFFFFF91 FFFFFF80 FFFFFF84 00 37 01 0E 63 6F 70 79 24 64 65 66
   61 75 6C 74 24 34 08 08 52 00 FFFFFF84 FFFFFF80 FFFFFF80 FFFFFF84 20 53
   01 08 68 61 73 68 43 6F 64 65 14 01 54 10 02 0D
   55 09 02 56 04 02 03 49 6E 74 08 08 58 00 FFFFFF84 FFFFFF80
   FFFFFF80 FFFFFF84 20 59 01 08 74 6F 53 74 72 69 6E 67 14 01
   5A 10 02 5B 5E 0E 02 0D 5C 09 02 5D 04 01 06 50
   72 65 64 65 66 09 02 5F 60 02 06 53 74 72 69 6E
   67 0A 02 5D 04 08 08 62 00 FFFFFF84 FFFFFF80 FFFFFF80 FFFFFF84 20 63 01
   06 65 71 75 61 6C 73 14 02 64 67 10 02 0D 65 09
   02 66 04 02 07 42 6F 6F 6C 65 61 6E 08 07 68 61
   FFFFFF81 FFFFFF80 FFFFFFC0 00 69 01 03 78 24 31 10 02 0D 6A 09 02
   6B 04 02 03 41 6E 79 08 08 6D 00 FFFFFF84 FFFFFF80 FFFFFF80 FFFFFF84 20
   6E 01 0D 70 72 6F 64 75 63 74 50 72 65 66 69 78
   15 01 6F 10 02 70 75 0D 01 71 0A 02 72 73 01 04
   6C 61 6E 67 0A 01 74 01 04 6A 61 76 61 09 02 5F
   71 08 08 77 00 FFFFFF84 FFFFFF80 FFFFFF80 FFFFFF84 20 78 01 0C 70 72 6F
   64 75 63 74 41 72 69 74 79 15 01 54 08 08 7A 00
   FFFFFF84 FFFFFF80 FFFFFF80 FFFFFF84 20 7B 01 0E 70 72 6F 64 75 63 74 45
   6C 65 6D 65 6E 74 14 02 69 7C 08 07 68 79 FFFFFF81 FFFFFF80
   FFFFFFC0 00 54 08 08 7E 00 FFFFFF84 FFFFFF80 FFFFFF80 FFFFFF84 20 7F 01 08 63
   61 6E 45 71 75 61 6C 14 03 64 FFFFFF81 00 08 07 68 7D
   FFFFFF81 FFFFFF80 FFFFFFC0 00 69 28 03 00 FFFFFF81 02 10 03 0D FFFFFF81 03 09
   03 FFFFFF81 04 04 02 0C 73 65 72 69 61 6C 69 7A 61 62
   6C 65 07 09 FFFFFF81 06 02 FFFFFF81 FFFFFF80 FFFFFF88 02 FFFFFF81 07 01 06 44
   65 66 44 65 66 10 03 09 FFFFFF81 08 06 09 01 02 FFFFFF84 FFFFFF81
   FFFFFF80 FFFFFF88 02 FFFFFF81 09 13 07 FFFFFF81 08 FFFFFF81 0A FFFFFF81 0D 0C 10 03
   70 FFFFFF81 0B 09 03 FFFFFF81 0C 71 02 06 4F 62 6A 65 63 74
   10 08 0D FFFFFF81 0E 16 1E 30 08 3D 09 03 FFFFFF81 0F 04 02
   09 46 75 6E 63 74 69 6F 6E 34 08 07 3B FFFFFF81 08 FFFFFF84
   00 FFFFFF81 11 14 02 FFFFFF81 07 08 0A FFFFFF81 13 FFFFFF81 08 FFFFFF81 FFFFFF80 FFFFFF84
   40 FFFFFF81 14 01 05 61 70 70 6C 79 14 09 3D FFFFFF81 15 FFFFFF81
   16 FFFFFF81 17 FFFFFF81 18 08 06 14 FFFFFF81 12 FFFFFFC0 00 16 08 06 1C
   FFFFFF81 12 FFFFFFC0 00 1E 08 06 2E FFFFFF81 12 FFFFFFC0 00 30 08 06 36
   FFFFFF81 12 FFFFFFC0 00 08 08 0A FFFFFF81 1A FFFFFF81 08 FFFFFF81 FFFFFF80 FFFFFF84 40 FFFFFF81
   1B 01 07 75 6E 61 70 70 6C 79 14 04 FFFFFF81 1C FFFFFF81 22
   10 05 0D FFFFFF81 1D FFFFFF81 1F 09 03 FFFFFF81 1E 04 02 04 53 6F
   6D 65 10 07 0D FFFFFF81 20 16 1E 30 08 09 03 FFFFFF81 21 04
   02 06 54 75 70 6C 65 34 08 07 FFFFFF81 23 FFFFFF81 19 FFFFFFC0 00
   3D 01 03 78 24 30 
  minor version: 0
  major version: 49
  Constant pool:
const #1 = Asciz	SourceFile;
const #2 = Asciz	Tree.scala;
const #3 = Asciz	rhs;
const #4 = Asciz	Lscala/reflect/Tree;;
const #5 = Asciz	ret;
const #6 = Asciz	Lscala/reflect/Type;;
const #7 = Asciz	vparamss;
const #8 = Asciz	Lscala/collection/immutable/List;;
const #9 = Asciz	Lscala/collection/immutable/List<Lscala/collection/immutable/List<Lscala/reflect/Tree;>;>;;
const #10 = Asciz	Signature;
const #11 = Asciz	sym;
const #12 = Asciz	Lscala/reflect/Symbol;;
const #13 = Asciz	<init>;
const #14 = Asciz	(Lscala/reflect/Symbol;Lscala/collection/immutable/List;Lscala/reflect/Type;Lscala/reflect/Tree;)V;
const #15 = Asciz	Code;
const #16 = Asciz	LineNumberTable;
const #17 = Asciz	scala/reflect/DefDef;
const #18 = class	#17;	//  scala/reflect/DefDef
const #19 = NameAndType	#11:#12;//  sym:Lscala/reflect/Symbol;
const #20 = Field	#18.#19;	//  scala/reflect/DefDef.sym:Lscala/reflect/Symbol;
const #21 = NameAndType	#7:#8;//  vparamss:Lscala/collection/immutable/List;
const #22 = Field	#18.#21;	//  scala/reflect/DefDef.vparamss:Lscala/collection/immutable/List;
const #23 = NameAndType	#5:#6;//  ret:Lscala/reflect/Type;
const #24 = Field	#18.#23;	//  scala/reflect/DefDef.ret:Lscala/reflect/Type;
const #25 = NameAndType	#3:#4;//  rhs:Lscala/reflect/Tree;
const #26 = Field	#18.#25;	//  scala/reflect/DefDef.rhs:Lscala/reflect/Tree;
const #27 = Asciz	scala/reflect/Tree;
const #28 = class	#27;	//  scala/reflect/Tree
const #29 = Asciz	()V;
const #30 = NameAndType	#13:#29;//  "<init>":()V
const #31 = Method	#28.#30;	//  scala/reflect/Tree."<init>":()V
const #32 = Asciz	scala/Product$class;
const #33 = class	#32;	//  scala/Product$class
const #34 = Asciz	$init$;
const #35 = Asciz	(Lscala/Product;)V;
const #36 = NameAndType	#34:#35;//  $init$:(Lscala/Product;)V
const #37 = Method	#33.#36;	//  scala/Product$class.$init$:(Lscala/Product;)V
const #38 = Asciz	this;
const #39 = Asciz	Lscala/reflect/DefDef;;
const #40 = Asciz	LocalVariableTable;
const #41 = Asciz	(Lscala/reflect/Symbol;Lscala/collection/immutable/List<Lscala/collection/immutable/List<Lscala/reflect/Tree;>;>;Lscala/reflect/Type;Lscala/reflect/Tree;)V;
const #42 = Asciz	gd16$1;
const #43 = Asciz	(Lscala/reflect/Tree;Lscala/reflect/Type;Lscala/collection/immutable/List;Lscala/reflect/Symbol;)Z;
const #44 = Asciz	()Lscala/reflect/Symbol;;
const #45 = NameAndType	#11:#44;//  sym:()Lscala/reflect/Symbol;
const #46 = Method	#18.#45;	//  scala/reflect/DefDef.sym:()Lscala/reflect/Symbol;
const #47 = Asciz	java/lang/Object;
const #48 = class	#47;	//  java/lang/Object
const #49 = Asciz	equals;
const #50 = Asciz	(Ljava/lang/Object;)Z;
const #51 = NameAndType	#49:#50;//  equals:(Ljava/lang/Object;)Z
const #52 = Method	#48.#51;	//  java/lang/Object.equals:(Ljava/lang/Object;)Z
const #53 = Asciz	()Lscala/collection/immutable/List;;
const #54 = NameAndType	#7:#53;//  vparamss:()Lscala/collection/immutable/List;
const #55 = Method	#18.#54;	//  scala/reflect/DefDef.vparamss:()Lscala/collection/immutable/List;
const #56 = Asciz	()Lscala/reflect/Type;;
const #57 = NameAndType	#5:#56;//  ret:()Lscala/reflect/Type;
const #58 = Method	#18.#57;	//  scala/reflect/DefDef.ret:()Lscala/reflect/Type;
const #59 = Asciz	()Lscala/reflect/Tree;;
const #60 = NameAndType	#3:#59;//  rhs:()Lscala/reflect/Tree;
const #61 = Method	#18.#60;	//  scala/reflect/DefDef.rhs:()Lscala/reflect/Tree;
const #62 = Asciz	canEqual;
const #63 = Asciz	productElement;
const #64 = Asciz	(I)Ljava/lang/Object;;
const #65 = Asciz	java/lang/IndexOutOfBoundsException;
const #66 = class	#65;	//  java/lang/IndexOutOfBoundsException
const #67 = Asciz	scala/runtime/BoxesRunTime;
const #68 = class	#67;	//  scala/runtime/BoxesRunTime
const #69 = Asciz	boxToInteger;
const #70 = Asciz	(I)Ljava/lang/Integer;;
const #71 = NameAndType	#69:#70;//  boxToInteger:(I)Ljava/lang/Integer;
const #72 = Method	#68.#71;	//  scala/runtime/BoxesRunTime.boxToInteger:(I)Ljava/lang/Integer;
const #73 = Asciz	toString;
const #74 = Asciz	()Ljava/lang/String;;
const #75 = NameAndType	#73:#74;//  toString:()Ljava/lang/String;
const #76 = Method	#48.#75;	//  java/lang/Object.toString:()Ljava/lang/String;
const #77 = Asciz	(Ljava/lang/String;)V;
const #78 = NameAndType	#13:#77;//  "<init>":(Ljava/lang/String;)V
const #79 = Method	#66.#78;	//  java/lang/IndexOutOfBoundsException."<init>":(Ljava/lang/String;)V
const #80 = Asciz	temp79;
const #81 = Asciz	I;
const #82 = Asciz	productArity;
const #83 = Asciz	()I;
const #84 = Asciz	productPrefix;
const #85 = Asciz	DefDef;
const #86 = String	#85;	//  DefDef
const #87 = NameAndType	#42:#43;//  gd16$1:(Lscala/reflect/Tree;Lscala/reflect/Type;Lscala/collection/immutable/List;Lscala/reflect/Symbol;)Z
const #88 = Method	#18.#87;	//  scala/reflect/DefDef.gd16$1:(Lscala/reflect/Tree;Lscala/reflect/Type;Lscala/collection/immutable/List;Lscala/reflect/Symbol;)Z
const #89 = Asciz	scala/Product;
const #90 = class	#89;	//  scala/Product
const #91 = NameAndType	#62:#50;//  canEqual:(Ljava/lang/Object;)Z
const #92 = InterfaceMethod	#90.#91;	//  scala/Product.canEqual:(Ljava/lang/Object;)Z
const #93 = Asciz	temp73;
const #94 = Asciz	Ljava/lang/Object;;
const #95 = Asciz	temp74;
const #96 = Asciz	temp75;
const #97 = Asciz	temp76;
const #98 = Asciz	temp77;
const #99 = Asciz	temp78;
const #100 = Asciz	rhs$2;
const #101 = Asciz	ret$1;
const #102 = Asciz	vparamss$1;
const #103 = Asciz	sym$8;
const #104 = Asciz	scala/runtime/ScalaRunTime$;
const #105 = class	#104;	//  scala/runtime/ScalaRunTime$
const #106 = Asciz	MODULE$;
const #107 = Asciz	Lscala/runtime/ScalaRunTime$;;
const #108 = NameAndType	#106:#107;//  MODULE$:Lscala/runtime/ScalaRunTime$;
const #109 = Field	#105.#108;	//  scala/runtime/ScalaRunTime$.MODULE$:Lscala/runtime/ScalaRunTime$;
const #110 = Asciz	_toString;
const #111 = Asciz	(Lscala/Product;)Ljava/lang/String;;
const #112 = NameAndType	#110:#111;//  _toString:(Lscala/Product;)Ljava/lang/String;
const #113 = Method	#105.#112;	//  scala/runtime/ScalaRunTime$._toString:(Lscala/Product;)Ljava/lang/String;
const #114 = Asciz	hashCode;
const #115 = Asciz	_hashCode;
const #116 = Asciz	(Lscala/Product;)I;
const #117 = NameAndType	#115:#116;//  _hashCode:(Lscala/Product;)I
const #118 = Method	#105.#117;	//  scala/runtime/ScalaRunTime$._hashCode:(Lscala/Product;)I
const #119 = Asciz	copy$default$1;
const #120 = Asciz	copy$default$2;
const #121 = Asciz	copy$default$3;
const #122 = Asciz	copy$default$4;
const #123 = Asciz	copy;
const #124 = Asciz	(Lscala/reflect/Symbol;Lscala/collection/immutable/List;Lscala/reflect/Type;Lscala/reflect/Tree;)Lscala/reflect/DefDef;;
const #125 = NameAndType	#13:#14;//  "<init>":(Lscala/reflect/Symbol;Lscala/collection/immutable/List;Lscala/reflect/Type;Lscala/reflect/Tree;)V
const #126 = Method	#18.#125;	//  scala/reflect/DefDef."<init>":(Lscala/reflect/Symbol;Lscala/collection/immutable/List;Lscala/reflect/Type;Lscala/reflect/Tree;)V
const #127 = Asciz	()Lscala/collection/immutable/List<Lscala/collection/immutable/List<Lscala/reflect/Tree;>;>;;
const #128 = Asciz	productElements;
const #129 = Asciz	()Lscala/collection/Iterator;;
const #130 = Asciz	(Lscala/Product;)Lscala/collection/Iterator;;
const #131 = NameAndType	#128:#130;//  productElements:(Lscala/Product;)Lscala/collection/Iterator;
const #132 = Method	#33.#131;	//  scala/Product$class.productElements:(Lscala/Product;)Lscala/collection/Iterator;
const #133 = Asciz	productIterator;
const #134 = NameAndType	#133:#130;//  productIterator:(Lscala/Product;)Lscala/collection/Iterator;
const #135 = Method	#33.#134;	//  scala/Product$class.productIterator:(Lscala/Product;)Lscala/collection/Iterator;
const #136 = Asciz	ScalaSig;
const #137 = Asciz	scala/ScalaObject;
const #138 = class	#137;	//  scala/ScalaObject
const #139 = Asciz	java/io/Serializable;
const #140 = class	#139;	//  java/io/Serializable

{
public scala.reflect.DefDef(scala.reflect.Symbol, scala.collection.immutable.List, scala.reflect.Type, scala.reflect.Tree);
  Code:
   Stack=2, Locals=5, Args_size=5
   0:	aload_0
   1:	aload_1
   2:	putfield	#20; //Field sym:Lscala/reflect/Symbol;
   5:	aload_0
   6:	aload_2
   7:	putfield	#22; //Field vparamss:Lscala/collection/immutable/List;
   10:	aload_0
   11:	aload_3
   12:	putfield	#24; //Field ret:Lscala/reflect/Type;
   15:	aload_0
   16:	aload	4
   18:	putfield	#26; //Field rhs:Lscala/reflect/Tree;
   21:	aload_0
   22:	invokespecial	#31; //Method scala/reflect/Tree."<init>":()V
   25:	aload_0
   26:	invokestatic	#37; //Method scala/Product$class.$init$:(Lscala/Product;)V
   29:	return
  LineNumberTable: 
   line 50: 0

  LocalVariableTable: 
   Start  Length  Slot  Name   Signature
   0      30      0    this       Lscala/reflect/DefDef;
   0      30      1    sym       Lscala/reflect/Symbol;
   0      30      2    vparamss       Lscala/collection/immutable/List;
   0      30      3    ret       Lscala/reflect/Type;
   0      30      4    rhs       Lscala/reflect/Tree;

  Signature: length = 0x2
   00 29 

public boolean canEqual(java.lang.Object);
  Code:
   Stack=1, Locals=2, Args_size=2
   0:	aload_1
   1:	instanceof	#18; //class scala/reflect/DefDef
   4:	ireturn
  LineNumberTable: 
   line 50: 0


public java.lang.Object productElement(int);
  Code:
   Stack=3, Locals=3, Args_size=2
   0:	iload_1
   1:	istore_2
   2:	iload_2
   3:	tableswitch{ //0 to 3
		0: 68;
		1: 61;
		2: 54;
		3: 47;
		default: 32 }
   32:	new	#66; //class java/lang/IndexOutOfBoundsException
   35:	dup
   36:	iload_1
   37:	invokestatic	#72; //Method scala/runtime/BoxesRunTime.boxToInteger:(I)Ljava/lang/Integer;
   40:	invokevirtual	#76; //Method java/lang/Object.toString:()Ljava/lang/String;
   43:	invokespecial	#79; //Method java/lang/IndexOutOfBoundsException."<init>":(Ljava/lang/String;)V
   46:	athrow
   47:	aload_0
   48:	invokevirtual	#61; //Method rhs:()Lscala/reflect/Tree;
   51:	goto	72
   54:	aload_0
   55:	invokevirtual	#58; //Method ret:()Lscala/reflect/Type;
   58:	goto	72
   61:	aload_0
   62:	invokevirtual	#55; //Method vparamss:()Lscala/collection/immutable/List;
   65:	goto	72
   68:	aload_0
   69:	invokevirtual	#46; //Method sym:()Lscala/reflect/Symbol;
   72:	areturn
  LineNumberTable: 
   line 50: 0

  LocalVariableTable: 
   Start  Length  Slot  Name   Signature
   0      73      0    this       Lscala/reflect/DefDef;
   2      71      2    temp79       I


public int productArity();
  Code:
   Stack=1, Locals=1, Args_size=1
   0:	iconst_4
   1:	ireturn
  LineNumberTable: 
   line 50: 0


public java.lang.String productPrefix();
  Code:
   Stack=1, Locals=1, Args_size=1
   0:	ldc	#86; //String DefDef
   2:	areturn
  LineNumberTable: 
   line 50: 0


public boolean equals(java.lang.Object);
  Code:
   Stack=5, Locals=12, Args_size=2
   0:	aload_0
   1:	aload_1
   2:	if_acmpeq	107
   5:	aload_1
   6:	astore_2
   7:	aload_2
   8:	instanceof	#18; //class scala/reflect/DefDef
   11:	ifeq	103
   14:	aload_2
   15:	checkcast	#18; //class scala/reflect/DefDef
   18:	astore_3
   19:	aload_3
   20:	invokevirtual	#46; //Method sym:()Lscala/reflect/Symbol;
   23:	astore	4
   25:	aload_3
   26:	invokevirtual	#55; //Method vparamss:()Lscala/collection/immutable/List;
   29:	astore	5
   31:	aload_3
   32:	invokevirtual	#58; //Method ret:()Lscala/reflect/Type;
   35:	astore	6
   37:	aload_3
   38:	invokevirtual	#61; //Method rhs:()Lscala/reflect/Tree;
   41:	astore	7
   43:	aload	7
   45:	astore	8
   47:	aload	6
   49:	astore	9
   51:	aload	5
   53:	astore	10
   55:	aload	4
   57:	astore	11
   59:	aload_0
   60:	aload	8
   62:	aload	9
   64:	aload	10
   66:	aload	11
   68:	invokespecial	#88; //Method gd16$1:(Lscala/reflect/Tree;Lscala/reflect/Type;Lscala/collection/immutable/List;Lscala/reflect/Symbol;)Z
   71:	ifeq	99
   74:	aload	7
   76:	astore	8
   78:	aload	6
   80:	astore	9
   82:	aload	5
   84:	astore	10
   86:	aload_1
   87:	checkcast	#18; //class scala/reflect/DefDef
   90:	aload_0
   91:	invokeinterface	#92,  2; //InterfaceMethod scala/Product.canEqual:(Ljava/lang/Object;)Z
   96:	goto	104
   99:	iconst_0
   100:	goto	104
   103:	iconst_0
   104:	ifeq	111
   107:	iconst_1
   108:	goto	112
   111:	iconst_0
   112:	ireturn
  LineNumberTable: 
   line 50: 0
   line 26: 99
   line 50: 104

  LocalVariableTable: 
   Start  Length  Slot  Name   Signature
   0      113      0    this       Lscala/reflect/DefDef;
   7      100      2    temp73       Ljava/lang/Object;
   19      84      3    temp74       Lscala/reflect/DefDef;
   25      78      4    temp75       Lscala/reflect/Symbol;
   31      72      5    temp76       Lscala/collection/immutable/List;
   37      66      6    temp77       Lscala/reflect/Type;
   43      60      7    temp78       Lscala/reflect/Tree;
   47      27      8    rhs$2       Lscala/reflect/Tree;
   78      18      8    rhs$2       Lscala/reflect/Tree;
   74      29      8    rhs$2       Lscala/reflect/Tree;
   51      23      9    ret$1       Lscala/reflect/Type;
   82      14      9    ret$1       Lscala/reflect/Type;
   74      29      9    ret$1       Lscala/reflect/Type;
   55      19      10    vparamss$1       Lscala/collection/immutable/List;
   86      10      10    vparamss$1       Lscala/collection/immutable/List;
   74      29      10    vparamss$1       Lscala/collection/immutable/List;
   59      44      11    sym$8       Lscala/reflect/Symbol;


public java.lang.String toString();
  Code:
   Stack=2, Locals=1, Args_size=1
   0:	getstatic	#109; //Field scala/runtime/ScalaRunTime$.MODULE$:Lscala/runtime/ScalaRunTime$;
   3:	aload_0
   4:	invokevirtual	#113; //Method scala/runtime/ScalaRunTime$._toString:(Lscala/Product;)Ljava/lang/String;
   7:	areturn
  LineNumberTable: 
   line 50: 0


public int hashCode();
  Code:
   Stack=2, Locals=1, Args_size=1
   0:	getstatic	#109; //Field scala/runtime/ScalaRunTime$.MODULE$:Lscala/runtime/ScalaRunTime$;
   3:	aload_0
   4:	invokevirtual	#118; //Method scala/runtime/ScalaRunTime$._hashCode:(Lscala/Product;)I
   7:	ireturn
  LineNumberTable: 
   line 50: 0


public scala.reflect.Symbol copy$default$1();
  Code:
   Stack=1, Locals=1, Args_size=1
   0:	aload_0
   1:	invokevirtual	#46; //Method sym:()Lscala/reflect/Symbol;
   4:	areturn
  LineNumberTable: 
   line 50: 0


public scala.collection.immutable.List copy$default$2();
  Code:
   Stack=1, Locals=1, Args_size=1
   0:	aload_0
   1:	invokevirtual	#55; //Method vparamss:()Lscala/collection/immutable/List;
   4:	areturn
  LineNumberTable: 
   line 50: 0


public scala.reflect.Type copy$default$3();
  Code:
   Stack=1, Locals=1, Args_size=1
   0:	aload_0
   1:	invokevirtual	#58; //Method ret:()Lscala/reflect/Type;
   4:	areturn
  LineNumberTable: 
   line 50: 0


public scala.reflect.Tree copy$default$4();
  Code:
   Stack=1, Locals=1, Args_size=1
   0:	aload_0
   1:	invokevirtual	#61; //Method rhs:()Lscala/reflect/Tree;
   4:	areturn
  LineNumberTable: 
   line 50: 0


public scala.reflect.DefDef copy(scala.reflect.Symbol, scala.collection.immutable.List, scala.reflect.Type, scala.reflect.Tree);
  Code:
   Stack=6, Locals=5, Args_size=5
   0:	new	#18; //class scala/reflect/DefDef
   3:	dup
   4:	aload_1
   5:	aload_2
   6:	aload_3
   7:	aload	4
   9:	invokespecial	#126; //Method "<init>":(Lscala/reflect/Symbol;Lscala/collection/immutable/List;Lscala/reflect/Type;Lscala/reflect/Tree;)V
   12:	areturn
  LineNumberTable: 
   line 50: 0

  LocalVariableTable: 
   Start  Length  Slot  Name   Signature
   0      13      0    this       Lscala/reflect/DefDef;
   0      13      1    sym       Lscala/reflect/Symbol;
   0      13      2    vparamss       Lscala/collection/immutable/List;
   0      13      3    ret       Lscala/reflect/Type;
   0      13      4    rhs       Lscala/reflect/Tree;


public scala.reflect.Tree rhs();
  Code:
   Stack=1, Locals=1, Args_size=1
   0:	aload_0
   1:	getfield	#26; //Field rhs:Lscala/reflect/Tree;
   4:	areturn
  LineNumberTable: 
   line 50: 0


public scala.reflect.Type ret();
  Code:
   Stack=1, Locals=1, Args_size=1
   0:	aload_0
   1:	getfield	#24; //Field ret:Lscala/reflect/Type;
   4:	areturn
  LineNumberTable: 
   line 50: 0


public scala.collection.immutable.List vparamss();
  Code:
   Stack=1, Locals=1, Args_size=1
   0:	aload_0
   1:	getfield	#22; //Field vparamss:Lscala/collection/immutable/List;
   4:	areturn
  LineNumberTable: 
   line 50: 0

  Signature: length = 0x2
   00 7F 

public scala.reflect.Symbol sym();
  Code:
   Stack=1, Locals=1, Args_size=1
   0:	aload_0
   1:	getfield	#20; //Field sym:Lscala/reflect/Symbol;
   4:	areturn
  LineNumberTable: 
   line 50: 0


public scala.collection.Iterator productElements();
  Code:
   Stack=1, Locals=1, Args_size=1
   0:	aload_0
   1:	invokestatic	#132; //Method scala/Product$class.productElements:(Lscala/Product;)Lscala/collection/Iterator;
   4:	areturn
  LineNumberTable: 
   line 50: 0


public scala.collection.Iterator productIterator();
  Code:
   Stack=1, Locals=1, Args_size=1
   0:	aload_0
   1:	invokestatic	#135; //Method scala/Product$class.productIterator:(Lscala/Product;)Lscala/collection/Iterator;
   4:	areturn
  LineNumberTable: 
   line 50: 0


}

