Compiled from "Type.scala"
public class scala.reflect.ImplicitMethodType extends scala.reflect.MethodType implements scala.ScalaObject
  SourceFile: "Type.scala"
  ScalaSig: length = 0x11B
   05 00 2E 06 08 01 02 FFFFFF84 FFFFFF80 FFFFFF80 FFFFFF80 00 07 02 12 49
   6D 70 6C 69 63 69 74 4D 65 74 68 6F 64 54 79 70
   65 0A 02 03 04 01 07 72 65 66 6C 65 63 74 0A 01
   05 01 05 73 63 61 6C 61 03 00 13 03 00 08 0C 10
   02 09 0A 0D 01 02 09 02 0B 02 02 0A 4D 65 74 68
   6F 64 54 79 70 65 10 02 0D 0E 0D 01 04 09 02 0F
   04 02 0B 53 63 61 6C 61 4F 62 6A 65 63 74 08 09
   11 00 FFFFFF82 FFFFFF80 FFFFFFA0 FFFFFF80 04 12 21 01 07 66 6F 72 6D 61
   6C 73 10 03 13 1B 1E 0E 02 14 19 0E 02 15 18 0D
   01 16 0A 02 17 06 01 06 3C 72 6F 6F 74 3E 09 01
   05 09 02 1A 04 01 07 70 61 63 6B 61 67 65 09 02
   1C 1D 02 04 4C 69 73 74 0A 02 1A 04 10 02 09 1F
   09 02 20 02 02 06 53 79 6D 62 6F 6C 09 02 11 0A
   08 09 23 00 FFFFFF82 FFFFFF80 FFFFFFA0 FFFFFF80 04 24 27 01 06 72 65 73
   74 70 65 10 02 09 25 09 02 26 02 02 04 54 79 70
   65 09 02 23 0A 08 05 29 00 FFFFFF84 00 2A 01 06 3C 69
   6E 69 74 3E 14 03 2B 2C 2D 10 02 09 00 08 05 11
   28 FFFFFFC0 00 12 08 05 23 28 FFFFFFC0 00 24 
  minor version: 0
  major version: 49
  Constant pool:
const #1 = Asciz	SourceFile;
const #2 = Asciz	Type.scala;
const #3 = Asciz	<init>;
const #4 = Asciz	(Lscala/collection/immutable/List;Lscala/reflect/Type;)V;
const #5 = Asciz	Code;
const #6 = Asciz	LineNumberTable;
const #7 = Asciz	scala/reflect/MethodType;
const #8 = class	#7;	//  scala/reflect/MethodType
const #9 = NameAndType	#3:#4;//  "<init>":(Lscala/collection/immutable/List;Lscala/reflect/Type;)V
const #10 = Method	#8.#9;	//  scala/reflect/MethodType."<init>":(Lscala/collection/immutable/List;Lscala/reflect/Type;)V
const #11 = Asciz	this;
const #12 = Asciz	Lscala/reflect/ImplicitMethodType;;
const #13 = Asciz	formals;
const #14 = Asciz	Lscala/collection/immutable/List;;
const #15 = Asciz	restpe;
const #16 = Asciz	Lscala/reflect/Type;;
const #17 = Asciz	LocalVariableTable;
const #18 = Asciz	(Lscala/collection/immutable/List<Lscala/reflect/Symbol;>;Lscala/reflect/Type;)V;
const #19 = Asciz	Signature;
const #20 = Asciz	ScalaSig;
const #21 = Asciz	scala/reflect/ImplicitMethodType;
const #22 = class	#21;	//  scala/reflect/ImplicitMethodType
const #23 = Asciz	scala/ScalaObject;
const #24 = class	#23;	//  scala/ScalaObject

{
public scala.reflect.ImplicitMethodType(scala.collection.immutable.List, scala.reflect.Type);
  Code:
   Stack=3, Locals=3, Args_size=3
   0:	aload_0
   1:	aload_1
   2:	aload_2
   3:	invokespecial	#10; //Method scala/reflect/MethodType."<init>":(Lscala/collection/immutable/List;Lscala/reflect/Type;)V
   6:	return
  LineNumberTable: 
   line 59: 0
   line 60: 1
   line 59: 3

  LocalVariableTable: 
   Start  Length  Slot  Name   Signature
   0      7      0    this       Lscala/reflect/ImplicitMethodType;
   0      7      1    formals       Lscala/collection/immutable/List;
   0      7      2    restpe       Lscala/reflect/Type;

  Signature: length = 0x2
   00 12 

}

