Compiled from "Symbol.scala"
public class scala.reflect.LabelSymbol extends scala.reflect.Symbol implements scala.ScalaObject,scala.Product,java.io.Serializable
  SourceFile: "Symbol.scala"
  ScalaSig: length = 0x3A4
   05 00 FFFFFF81 0B 06 08 01 02 FFFFFF84 FFFFFF80 FFFFFF80 FFFFFF80 40 07 02 0B
   4C 61 62 65 6C 53 79 6D 62 6F 6C 0A 02 03 04 01
   07 72 65 66 6C 65 63 74 0A 01 05 01 05 73 63 61
   6C 61 03 00 13 04 00 08 0C 10 10 02 09 0A 0D 01
   02 09 02 0B 02 02 06 53 79 6D 62 6F 6C 10 02 0D
   0E 0D 01 04 09 02 0F 04 02 0B 53 63 61 6C 61 4F
   62 6A 65 63 74 10 02 0D 11 09 02 12 04 02 07 50
   72 6F 64 75 63 74 08 08 14 00 FFFFFF82 FFFFFFCA FFFFFF80 FFFFFF84 00 15
   01 04 6E 61 6D 65 15 01 16 10 02 17 1A 0E 02 0D
   18 09 02 19 04 01 06 50 72 65 64 65 66 09 02 1B
   1C 02 06 53 74 72 69 6E 67 0A 02 19 04 08 08 1E
   00 FFFFFF82 FFFFFF88 FFFFFFA0 FFFFFF80 04 16 01 05 6E 61 6D 65 20 08 05
   20 00 FFFFFF84 00 21 01 06 3C 69 6E 69 74 3E 14 02 22
   23 10 02 09 00 08 05 14 1F FFFFFFC0 00 16 08 07 25 00
   FFFFFFC2 FFFFFF80 FFFFFF84 00 26 01 05 6F 77 6E 65 72 15 01 27 0E
   02 09 28 09 02 29 02 01 08 4E 6F 53 79 6D 62 6F
   6C 08 06 2B 00 FFFFFFA0 FFFFFF80 04 27 01 06 6F 77 6E 65 72
   20 08 07 2D 00 FFFFFFC2 FFFFFF80 FFFFFF84 00 2E 01 03 74 70 65 15
   01 2F 10 02 09 30 09 02 31 02 02 09 4E 61 6D 65
   64 54 79 70 65 08 06 33 00 FFFFFFA0 FFFFFF80 04 2F 01 04 74
   70 65 20 08 07 35 00 FFFFFF81 FFFFFF80 FFFFFF84 00 36 01 04 63 6F
   70 79 14 02 22 37 08 08 38 14 34 FFFFFF90 FFFFFF80 FFFFFFC0 00 16
   08 07 39 00 FFFFFF91 FFFFFF80 FFFFFF84 00 3A 01 0E 63 6F 70 79 24
   64 65 66 61 75 6C 74 24 31 15 01 3B 2A 02 16 3C
   2B 01 3D 10 02 3E 43 0D 01 3F 0A 02 40 41 01 09
   75 6E 63 68 65 63 6B 65 64 0A 02 42 04 01 0A 61
   6E 6E 6F 74 61 74 69 6F 6E 09 02 44 3F 02 11 75
   6E 63 68 65 63 6B 65 64 56 61 72 69 61 6E 63 65
   08 08 46 00 FFFFFF84 FFFFFF80 FFFFFF80 FFFFFF84 20 47 01 08 68 61 73 68
   43 6F 64 65 14 01 48 10 02 0D 49 09 02 4A 04 02
   03 49 6E 74 08 08 4C 00 FFFFFF84 FFFFFF80 FFFFFF80 FFFFFF84 20 4D 01 08
   74 6F 53 74 72 69 6E 67 14 01 16 08 08 4F 00 FFFFFF84
   FFFFFF80 FFFFFF80 FFFFFF84 20 50 01 06 65 71 75 61 6C 73 14 02 51
   54 10 02 0D 52 09 02 53 04 02 07 42 6F 6F 6C 65
   61 6E 08 07 55 4E FFFFFF81 FFFFFF80 FFFFFFC0 00 56 01 03 78 24 31
   10 02 0D 57 09 02 58 04 02 03 41 6E 79 08 08 5A
   00 FFFFFF84 FFFFFF80 FFFFFF80 FFFFFF84 20 5B 01 0D 70 72 6F 64 75 63 74
   50 72 65 66 69 78 15 01 5C 10 02 5D 62 0D 01 5E
   0A 02 5F 60 01 04 6C 61 6E 67 0A 01 61 01 04 6A
   61 76 61 09 02 1B 5E 08 08 64 00 FFFFFF84 FFFFFF80 FFFFFF80 FFFFFF84 20
   65 01 0C 70 72 6F 64 75 63 74 41 72 69 74 79 15
   01 48 08 08 67 00 FFFFFF84 FFFFFF80 FFFFFF80 FFFFFF84 20 68 01 0E 70 72
   6F 64 75 63 74 45 6C 65 6D 65 6E 74 14 02 56 69
   08 07 55 66 FFFFFF81 FFFFFF80 FFFFFFC0 00 48 08 08 6B 00 FFFFFF84 FFFFFF80 FFFFFF80
   FFFFFF84 20 6C 01 08 63 61 6E 45 71 75 61 6C 14 02 51
   6D 08 07 55 6A FFFFFF81 FFFFFF80 FFFFFFC0 00 56 28 02 00 6F 10 02
   0D 70 09 02 71 04 02 0C 73 65 72 69 61 6C 69 7A
   61 62 6C 65 07 07 73 02 FFFFFF81 FFFFFF80 FFFFFF88 02 74 01 0B 4C
   61 62 65 6C 53 79 6D 62 6F 6C 10 02 09 75 06 08
   01 02 FFFFFF84 FFFFFF81 FFFFFF80 FFFFFF88 02 76 13 04 75 77 7A 0C 10 02
   5D 78 09 02 79 5E 02 06 4F 62 6A 65 63 74 10 04
   0D 7B 16 22 09 02 7C 04 02 09 46 75 6E 63 74 69
   6F 6E 31 08 05 20 75 FFFFFF84 00 7E 14 01 74 08 09 FFFFFF81
   00 75 FFFFFF81 FFFFFF80 FFFFFF84 40 FFFFFF81 01 01 05 61 70 70 6C 79 14
   03 22 FFFFFF81 02 08 05 14 7F FFFFFFC0 00 16 08 09 FFFFFF81 04 75
   FFFFFF81 FFFFFF80 FFFFFF84 40 FFFFFF81 05 01 07 75 6E 61 70 70 6C 79 14
   04 FFFFFF81 06 FFFFFF81 09 10 04 0D FFFFFF81 07 16 09 03 FFFFFF81 08 04
   02 04 53 6F 6D 65 08 07 FFFFFF81 0A FFFFFF81 03 FFFFFFC0 00 22 01
   03 78 24 30 
  minor version: 0
  major version: 49
  Constant pool:
Asciz	SourceFile;
Asciz	Symbol.scala;
Asciz	andThen;
Asciz	(Lscala/Function1;)Lscala/Function1;;
Asciz	Code;
Asciz	scala/reflect/LabelSymbol$;
class	scala/reflect/LabelSymbol$
Asciz	MODULE$;
Asciz	Lscala/reflect/LabelSymbol$;;
NameAndType	MODULE$:Lscala/reflect/LabelSymbol$;
Field	scala/reflect/LabelSymbol$.MODULE$:Lscala/reflect/LabelSymbol$;
NameAndType	andThen:(Lscala/Function1;)Lscala/Function1;
Method	scala/reflect/LabelSymbol$.andThen:(Lscala/Function1;)Lscala/Function1;
Asciz	compose;
NameAndType	compose:(Lscala/Function1;)Lscala/Function1;
Method	scala/reflect/LabelSymbol$.compose:(Lscala/Function1;)Lscala/Function1;
Asciz	tpe;
Asciz	Lscala/reflect/NamedType;;
Asciz	owner;
Asciz	Lscala/reflect/NoSymbol$;;
Asciz	name;
Asciz	Ljava/lang/String;;
Asciz	<init>;
Asciz	(Ljava/lang/String;)V;
Asciz	LineNumberTable;
Asciz	scala/reflect/LabelSymbol;
class	scala/reflect/LabelSymbol
NameAndType	name:Ljava/lang/String;
Field	scala/reflect/LabelSymbol.name:Ljava/lang/String;
Asciz	scala/reflect/Symbol;
class	scala/reflect/Symbol
Asciz	()V;
NameAndType	"<init>":()V
Method	scala/reflect/Symbol."<init>":()V
Asciz	scala/Product$class;
class	scala/Product$class
Asciz	$init$;
Asciz	(Lscala/Product;)V;
NameAndType	$init$:(Lscala/Product;)V
Method	scala/Product$class.$init$:(Lscala/Product;)V
Asciz	scala/reflect/NoSymbol$;
class	scala/reflect/NoSymbol$
NameAndType	MODULE$:Lscala/reflect/NoSymbol$;
Field	scala/reflect/NoSymbol$.MODULE$:Lscala/reflect/NoSymbol$;
NameAndType	owner:Lscala/reflect/NoSymbol$;
Field	scala/reflect/LabelSymbol.owner:Lscala/reflect/NoSymbol$;
Asciz	scala/reflect/NamedType;
class	scala/reflect/NamedType
Asciz	scala.Unit;
String	scala.Unit
NameAndType	"<init>":(Ljava/lang/String;)V
Method	scala/reflect/NamedType."<init>":(Ljava/lang/String;)V
NameAndType	tpe:Lscala/reflect/NamedType;
Field	scala/reflect/LabelSymbol.tpe:Lscala/reflect/NamedType;
Asciz	this;
Asciz	Lscala/reflect/LabelSymbol;;
Asciz	LocalVariableTable;
Asciz	gd7$1;
Asciz	(Ljava/lang/String;)Z;
Asciz	()Ljava/lang/String;;
NameAndType	name:()Ljava/lang/String;
Method	scala/reflect/LabelSymbol.name:()Ljava/lang/String;
Asciz	java/lang/Object;
class	java/lang/Object
Asciz	equals;
Asciz	(Ljava/lang/Object;)Z;
NameAndType	equals:(Ljava/lang/Object;)Z
Method	java/lang/Object.equals:(Ljava/lang/Object;)Z
Asciz	()Lscala/reflect/Symbol;;
Asciz	()Lscala/reflect/NoSymbol$;;
NameAndType	owner:()Lscala/reflect/NoSymbol$;
Method	scala/reflect/LabelSymbol.owner:()Lscala/reflect/NoSymbol$;
Asciz	()Lscala/reflect/Type;;
Asciz	()Lscala/reflect/NamedType;;
NameAndType	tpe:()Lscala/reflect/NamedType;
Method	scala/reflect/LabelSymbol.tpe:()Lscala/reflect/NamedType;
Asciz	canEqual;
Asciz	productElement;
Asciz	(I)Ljava/lang/Object;;
Asciz	scala/MatchError;
class	scala/MatchError
Asciz	scala/runtime/BoxesRunTime;
class	scala/runtime/BoxesRunTime
Asciz	boxToInteger;
Asciz	(I)Ljava/lang/Integer;;
NameAndType	boxToInteger:(I)Ljava/lang/Integer;
Method	scala/runtime/BoxesRunTime.boxToInteger:(I)Ljava/lang/Integer;
Asciz	toString;
NameAndType	toString:()Ljava/lang/String;
Method	java/lang/Object.toString:()Ljava/lang/String;
Method	scala/MatchError."<init>":(Ljava/lang/String;)V
Asciz	java/lang/IndexOutOfBoundsException;
class	java/lang/IndexOutOfBoundsException
Method	java/lang/IndexOutOfBoundsException."<init>":(Ljava/lang/String;)V
Asciz	productArity;
Asciz	()I;
Asciz	productPrefix;
Asciz	LabelSymbol;
String	LabelSymbol
NameAndType	gd7$1:(Ljava/lang/String;)Z
Method	scala/reflect/LabelSymbol.gd7$1:(Ljava/lang/String;)Z
Asciz	scala/Equals;
class	scala/Equals
NameAndType	canEqual:(Ljava/lang/Object;)Z
InterfaceMethod	scala/Equals.canEqual:(Ljava/lang/Object;)Z
Asciz	temp35;
Asciz	temp36;
Asciz	scala/runtime/ScalaRunTime$;
class	scala/runtime/ScalaRunTime$
Asciz	Lscala/runtime/ScalaRunTime$;;
NameAndType	MODULE$:Lscala/runtime/ScalaRunTime$;
Field	scala/runtime/ScalaRunTime$.MODULE$:Lscala/runtime/ScalaRunTime$;
Asciz	_toString;
Asciz	(Lscala/Product;)Ljava/lang/String;;
NameAndType	_toString:(Lscala/Product;)Ljava/lang/String;
Method	scala/runtime/ScalaRunTime$._toString:(Lscala/Product;)Ljava/lang/String;
Asciz	hashCode;
Asciz	_hashCode;
Asciz	(Lscala/Product;)I;
NameAndType	_hashCode:(Lscala/Product;)I
Method	scala/runtime/ScalaRunTime$._hashCode:(Lscala/Product;)I
Asciz	copy;
Asciz	(Ljava/lang/String;)Lscala/reflect/LabelSymbol;;
Method	scala/reflect/LabelSymbol."<init>":(Ljava/lang/String;)V
Asciz	copy$default$1;
Asciz	productElements;
Asciz	()Lscala/collection/Iterator;;
Asciz	(Lscala/Product;)Lscala/collection/Iterator;;
NameAndType	productElements:(Lscala/Product;)Lscala/collection/Iterator;
Method	scala/Product$class.productElements:(Lscala/Product;)Lscala/collection/Iterator;
Asciz	Deprecated;
Asciz	productIterator;
NameAndType	productIterator:(Lscala/Product;)Lscala/collection/Iterator;
Method	scala/Product$class.productIterator:(Lscala/Product;)Lscala/collection/Iterator;
Asciz	ScalaSig;
Asciz	scala/ScalaObject;
class	scala/ScalaObject
Asciz	scala/Product;
class	scala/Product
Asciz	java/io/Serializable;
class	java/io/Serializable

{
private final scala.reflect.NamedType tpe;
  Signature: Lscala/reflect/NamedType;

private final scala.reflect.NoSymbol$ owner;
  Signature: Lscala/reflect/NoSymbol$;

private final java.lang.String name;
  Signature: Ljava/lang/String;

public static final scala.Function1 andThen(scala.Function1);
  Signature: (Lscala/Function1;)Lscala/Function1;
  Code:
   Stack=2, Locals=1, Args_size=1
	getstatic	Field scala/reflect/LabelSymbol$.MODULE$:Lscala/reflect/LabelSymbol$;
	aload_0
	invokevirtual	Method scala/reflect/LabelSymbol$.andThen:(Lscala/Function1;)Lscala/Function1;
	areturn
  Labels:

public static final scala.Function1 compose(scala.Function1);
  Signature: (Lscala/Function1;)Lscala/Function1;
  Code:
   Stack=2, Locals=1, Args_size=1
	getstatic	Field scala/reflect/LabelSymbol$.MODULE$:Lscala/reflect/LabelSymbol$;
	aload_0
	invokevirtual	Method scala/reflect/LabelSymbol$.compose:(Lscala/Function1;)Lscala/Function1;
	areturn
  Labels:

public scala.reflect.LabelSymbol(java.lang.String);
  Signature: (Ljava/lang/String;)V
  Code:
   Stack=4, Locals=2, Args_size=2
	aload_0
	aload_1
	putfield	Field name:Ljava/lang/String;
	aload_0
	invokespecial	Method scala/reflect/Symbol."<init>":()V
	aload_0
	invokestatic	Method scala/Product$class.$init$:(Lscala/Product;)V
	aload_0
	getstatic	Field scala/reflect/NoSymbol$.MODULE$:Lscala/reflect/NoSymbol$;
	putfield	Field owner:Lscala/reflect/NoSymbol$;
	aload_0
	new	class scala/reflect/NamedType
	dup
	ldc	String scala.Unit
	invokespecial	Method scala/reflect/NamedType."<init>":(Ljava/lang/String;)V
	putfield	Field tpe:Lscala/reflect/NamedType;
	return
  Labels:
  LocalVariableTable: 
   Start  Length  Slot  Name   Signature
   0      34      0    this       Lscala/reflect/LabelSymbol;
   0      34      1    name       Ljava/lang/String;


private final boolean gd7$1(java.lang.String);
  Signature: (Ljava/lang/String;)Z
  Code:
   Stack=2, Locals=3, Args_size=2
	aload_1
	aload_0
	invokevirtual	Method name:()Ljava/lang/String;
	astore_2
	dup
	ifnonnull	l1 // aload_2
	pop
	aload_2
	ifnull	l2 // iconst_1
	goto	l3 // iconst_0
l1	aload_2
	invokevirtual	Method java/lang/Object.equals:(Ljava/lang/Object;)Z
	ifeq	l3 // iconst_0
l2	iconst_1
	goto	l4 // ireturn
l3	iconst_0
l4	ireturn
  Labels:
   	l1 = 18 // aload_2
   	l2 = 25 // iconst_1
   	l3 = 29 // iconst_0
   	l4 = 30 // ireturn

public scala.reflect.Symbol owner();
  Signature: ()Lscala/reflect/Symbol;
  Code:
   Stack=1, Locals=1, Args_size=1
	aload_0
	invokevirtual	Method owner:()Lscala/reflect/NoSymbol$;
	areturn
  Labels:

public scala.reflect.Type tpe();
  Signature: ()Lscala/reflect/Type;
  Code:
   Stack=1, Locals=1, Args_size=1
	aload_0
	invokevirtual	Method tpe:()Lscala/reflect/NamedType;
	areturn
  Labels:

public boolean canEqual(java.lang.Object);
  Signature: (Ljava/lang/Object;)Z
  Code:
   Stack=1, Locals=2, Args_size=2
	aload_1
	instanceof	class scala/reflect/LabelSymbol
	ireturn
  Labels:

public java.lang.Object productElement(int);
  Signature: (I)Ljava/lang/Object;
  Code:
   Stack=3, Locals=2, Args_size=2
	iload_1
	iconst_0
	if_icmpne	l1 // iconst_1
	iconst_1
	ifeq	l2 // new
	aload_0
	invokevirtual	Method name:()Ljava/lang/String;
	areturn
l2	new	class scala/MatchError
	dup
	iload_1
	invokestatic	Method scala/runtime/BoxesRunTime.boxToInteger:(I)Ljava/lang/Integer;
	invokevirtual	Method java/lang/Object.toString:()Ljava/lang/String;
	invokespecial	Method scala/MatchError."<init>":(Ljava/lang/String;)V
	athrow
l1	iconst_1
	ifeq	l3 // new
	new	class java/lang/IndexOutOfBoundsException
	dup
	iload_1
	invokestatic	Method scala/runtime/BoxesRunTime.boxToInteger:(I)Ljava/lang/Integer;
	invokevirtual	Method java/lang/Object.toString:()Ljava/lang/String;
	invokespecial	Method java/lang/IndexOutOfBoundsException."<init>":(Ljava/lang/String;)V
	athrow
l3	new	class scala/MatchError
	dup
	iload_1
	invokestatic	Method scala/runtime/BoxesRunTime.boxToInteger:(I)Ljava/lang/Integer;
	invokevirtual	Method java/lang/Object.toString:()Ljava/lang/String;
	invokespecial	Method scala/MatchError."<init>":(Ljava/lang/String;)V
	athrow
  Labels:
   	l2 = 14 // new
   	l1 = 29 // iconst_1
   	l3 = 48 // new

public int productArity();
  Signature: ()I
  Code:
   Stack=1, Locals=1, Args_size=1
	iconst_1
	ireturn
  Labels:

public java.lang.String productPrefix();
  Signature: ()Ljava/lang/String;
  Code:
   Stack=1, Locals=1, Args_size=1
	ldc	String LabelSymbol
	areturn
  Labels:

public boolean equals(java.lang.Object);
  Signature: (Ljava/lang/Object;)Z
  Code:
   Stack=3, Locals=4, Args_size=2
	aload_0
	aload_1
	if_acmpeq	l1 // iconst_1
	aload_1
	instanceof	class scala/reflect/LabelSymbol
	ifeq	l2 // iconst_1
	aload_1
	checkcast	class scala/reflect/LabelSymbol
	astore_2
	aload_2
	invokevirtual	Method name:()Ljava/lang/String;
	astore_3
	aload_0
	aload_3
	invokespecial	Method gd7$1:(Ljava/lang/String;)Z
	ifeq	l3 // iconst_1
	aload_1
	checkcast	class scala/reflect/LabelSymbol
	aload_0
	invokeinterface	InterfaceMethod scala/Equals.canEqual:(Ljava/lang/Object;)Z
	goto	l4 // ifeq
l3	iconst_1
	ifeq	l5 // new
	iconst_0
	goto	l4 // ifeq
l5	new	class scala/MatchError
	dup
	aload_1
	invokevirtual	Method java/lang/Object.toString:()Ljava/lang/String;
	invokespecial	Method scala/MatchError."<init>":(Ljava/lang/String;)V
	athrow
l2	iconst_1
	ifeq	l6 // new
	iconst_0
l4	ifeq	l7 // iconst_0
l1	iconst_1
	goto	l8 // ireturn
l7	iconst_0
l8	ireturn
l6	new	class scala/MatchError
	dup
	aload_1
	invokevirtual	Method java/lang/Object.toString:()Ljava/lang/String;
	invokespecial	Method scala/MatchError."<init>":(Ljava/lang/String;)V
	athrow
  Labels:
   	l3 = 43 // iconst_1
   	l5 = 51 // new
   	l2 = 63 // iconst_1
   	l4 = 68 // ifeq
   	l1 = 71 // iconst_1
   	l7 = 75 // iconst_0
   	l8 = 76 // ireturn
   	l6 = 77 // new
  LocalVariableTable: 
   Start  Length  Slot  Name   Signature
   0      89      0    this       Lscala/reflect/LabelSymbol;
   17      46      2    temp35       Lscala/reflect/LabelSymbol;
   22      41      3    temp36       Ljava/lang/String;


public java.lang.String toString();
  Signature: ()Ljava/lang/String;
  Code:
   Stack=2, Locals=1, Args_size=1
	getstatic	Field scala/runtime/ScalaRunTime$.MODULE$:Lscala/runtime/ScalaRunTime$;
	aload_0
	invokevirtual	Method scala/runtime/ScalaRunTime$._toString:(Lscala/Product;)Ljava/lang/String;
	areturn
  Labels:

public int hashCode();
  Signature: ()I
  Code:
   Stack=2, Locals=1, Args_size=1
	getstatic	Field scala/runtime/ScalaRunTime$.MODULE$:Lscala/runtime/ScalaRunTime$;
	aload_0
	invokevirtual	Method scala/runtime/ScalaRunTime$._hashCode:(Lscala/Product;)I
	ireturn
  Labels:

public scala.reflect.LabelSymbol copy(java.lang.String);
  Signature: (Ljava/lang/String;)Lscala/reflect/LabelSymbol;
  Code:
   Stack=3, Locals=2, Args_size=2
	new	class scala/reflect/LabelSymbol
	dup
	aload_1
	invokespecial	Method "<init>":(Ljava/lang/String;)V
	areturn
  Labels:
  LocalVariableTable: 
   Start  Length  Slot  Name   Signature
   0      9      0    this       Lscala/reflect/LabelSymbol;
   0      9      1    name       Ljava/lang/String;


public scala.reflect.NamedType tpe();
  Signature: ()Lscala/reflect/NamedType;
  Code:
   Stack=1, Locals=1, Args_size=1
	aload_0
	getfield	Field tpe:Lscala/reflect/NamedType;
	areturn
  Labels:

public scala.reflect.NoSymbol$ owner();
  Signature: ()Lscala/reflect/NoSymbol$;
  Code:
   Stack=1, Locals=1, Args_size=1
	aload_0
	getfield	Field owner:Lscala/reflect/NoSymbol$;
	areturn
  Labels:

public java.lang.String name();
  Signature: ()Ljava/lang/String;
  Code:
   Stack=1, Locals=1, Args_size=1
	aload_0
	getfield	Field name:Ljava/lang/String;
	areturn
  Labels:

public java.lang.String copy$default$1();
  Signature: ()Ljava/lang/String;
  Code:
   Stack=1, Locals=1, Args_size=1
	aload_0
	invokevirtual	Method name:()Ljava/lang/String;
	areturn
  Labels:

public scala.collection.Iterator productElements();
  Signature: ()Lscala/collection/Iterator;
  Code:
   Stack=1, Locals=1, Args_size=1
	aload_0
	invokestatic	Method scala/Product$class.productElements:(Lscala/Product;)Lscala/collection/Iterator;
	areturn
  Labels:
  Deprecated: true

public scala.collection.Iterator productIterator();
  Signature: ()Lscala/collection/Iterator;
  Code:
   Stack=1, Locals=1, Args_size=1
	aload_0
	invokestatic	Method scala/Product$class.productIterator:(Lscala/Product;)Lscala/collection/Iterator;
	areturn
  Labels:

}

