Compiled from "Symbol.scala"
public class scala.reflect.LabelSymbol extends scala.reflect.Symbol implements scala.ScalaObject,scala.Product,java.io.Serializable
  SourceFile: "Symbol.scala"
  ScalaSig: length = 0x3A4
   05 00 FFFFFF81 0B 06 08 01 02 FFFFFF84 FFFFFF80 FFFFFF80 FFFFFF80 40 07 02 0B
   4C 61 62 65 6C 53 79 6D 62 6F 6C 0A 02 03 04 01
   07 72 65 66 6C 65 63 74 0A 01 05 01 05 73 63 61
   6C 61 03 00 13 04 00 08 0C 10 10 02 09 0A 0D 01
   02 09 02 0B 02 02 06 53 79 6D 62 6F 6C 10 02 0D
   0E 0D 01 04 09 02 0F 04 02 0B 53 63 61 6C 61 4F
   62 6A 65 63 74 10 02 0D 11 09 02 12 04 02 07 50
   72 6F 64 75 63 74 08 08 14 00 FFFFFF82 FFFFFFCA FFFFFF80 FFFFFF84 00 15
   01 04 6E 61 6D 65 15 01 16 10 02 17 1A 0E 02 0D
   18 09 02 19 04 01 06 50 72 65 64 65 66 09 02 1B
   1C 02 06 53 74 72 69 6E 67 0A 02 19 04 08 08 1E
   00 FFFFFF82 FFFFFF88 FFFFFFA0 FFFFFF80 04 16 01 05 6E 61 6D 65 20 08 05
   20 00 FFFFFF84 00 21 01 06 3C 69 6E 69 74 3E 14 02 22
   23 10 02 09 00 08 05 14 1F FFFFFFC0 00 16 08 07 25 00
   FFFFFFC2 FFFFFF80 FFFFFF84 00 26 01 05 6F 77 6E 65 72 15 01 27 0E
   02 09 28 09 02 29 02 01 08 4E 6F 53 79 6D 62 6F
   6C 08 06 2B 00 FFFFFFA0 FFFFFF80 04 27 01 06 6F 77 6E 65 72
   20 08 07 2D 00 FFFFFFC2 FFFFFF80 FFFFFF84 00 2E 01 03 74 70 65 15
   01 2F 10 02 09 30 09 02 31 02 02 09 4E 61 6D 65
   64 54 79 70 65 08 06 33 00 FFFFFFA0 FFFFFF80 04 2F 01 04 74
   70 65 20 08 07 35 00 FFFFFF81 FFFFFF80 FFFFFF84 00 36 01 04 63 6F
   70 79 14 02 22 37 08 08 38 14 34 FFFFFF90 FFFFFF80 FFFFFFC0 00 16
   08 07 39 00 FFFFFF91 FFFFFF80 FFFFFF84 00 3A 01 0E 63 6F 70 79 24
   64 65 66 61 75 6C 74 24 31 15 01 3B 2A 02 16 3C
   2B 01 3D 10 02 3E 43 0D 01 3F 0A 02 40 41 01 09
   75 6E 63 68 65 63 6B 65 64 0A 02 42 04 01 0A 61
   6E 6E 6F 74 61 74 69 6F 6E 09 02 44 3F 02 11 75
   6E 63 68 65 63 6B 65 64 56 61 72 69 61 6E 63 65
   08 08 46 00 FFFFFF84 FFFFFF80 FFFFFF80 FFFFFF84 20 47 01 08 68 61 73 68
   43 6F 64 65 14 01 48 10 02 0D 49 09 02 4A 04 02
   03 49 6E 74 08 08 4C 00 FFFFFF84 FFFFFF80 FFFFFF80 FFFFFF84 20 4D 01 08
   74 6F 53 74 72 69 6E 67 14 01 16 08 08 4F 00 FFFFFF84
   FFFFFF80 FFFFFF80 FFFFFF84 20 50 01 06 65 71 75 61 6C 73 14 02 51
   54 10 02 0D 52 09 02 53 04 02 07 42 6F 6F 6C 65
   61 6E 08 07 55 4E FFFFFF81 FFFFFF80 FFFFFFC0 00 56 01 03 78 24 31
   10 02 0D 57 09 02 58 04 02 03 41 6E 79 08 08 5A
   00 FFFFFF84 FFFFFF80 FFFFFF80 FFFFFF84 20 5B 01 0D 70 72 6F 64 75 63 74
   50 72 65 66 69 78 15 01 5C 10 02 5D 62 0D 01 5E
   0A 02 5F 60 01 04 6C 61 6E 67 0A 01 61 01 04 6A
   61 76 61 09 02 1B 5E 08 08 64 00 FFFFFF84 FFFFFF80 FFFFFF80 FFFFFF84 20
   65 01 0C 70 72 6F 64 75 63 74 41 72 69 74 79 15
   01 48 08 08 67 00 FFFFFF84 FFFFFF80 FFFFFF80 FFFFFF84 20 68 01 0E 70 72
   6F 64 75 63 74 45 6C 65 6D 65 6E 74 14 02 56 69
   08 07 55 66 FFFFFF81 FFFFFF80 FFFFFFC0 00 48 08 08 6B 00 FFFFFF84 FFFFFF80 FFFFFF80
   FFFFFF84 20 6C 01 08 63 61 6E 45 71 75 61 6C 14 02 51
   6D 08 07 55 6A FFFFFF81 FFFFFF80 FFFFFFC0 00 56 28 02 00 6F 10 02
   0D 70 09 02 71 04 02 0C 73 65 72 69 61 6C 69 7A
   61 62 6C 65 07 07 73 02 FFFFFF81 FFFFFF80 FFFFFF88 02 74 01 0B 4C
   61 62 65 6C 53 79 6D 62 6F 6C 10 02 09 75 06 08
   01 02 FFFFFF84 FFFFFF81 FFFFFF80 FFFFFF88 02 76 13 04 75 77 7A 0C 10 02
   5D 78 09 02 79 5E 02 06 4F 62 6A 65 63 74 10 04
   0D 7B 16 22 09 02 7C 04 02 09 46 75 6E 63 74 69
   6F 6E 31 08 05 20 75 FFFFFF84 00 7E 14 01 74 08 09 FFFFFF81
   00 75 FFFFFF81 FFFFFF80 FFFFFF84 40 FFFFFF81 01 01 05 61 70 70 6C 79 14
   03 22 FFFFFF81 02 08 05 14 7F FFFFFFC0 00 16 08 09 FFFFFF81 04 75
   FFFFFF81 FFFFFF80 FFFFFF84 40 FFFFFF81 05 01 07 75 6E 61 70 70 6C 79 14
   04 FFFFFF81 06 FFFFFF81 09 10 04 0D FFFFFF81 07 16 09 03 FFFFFF81 08 04
   02 04 53 6F 6D 65 08 07 FFFFFF81 0A FFFFFF81 03 FFFFFFC0 00 22 01
   03 78 24 30 
  minor version: 0
  major version: 49
  Constant pool:
const #1 = Asciz	SourceFile;
const #2 = Asciz	Symbol.scala;
const #3 = Asciz	andThen;
const #4 = Asciz	(Lscala/Function1;)Lscala/Function1;;
const #5 = Asciz	Code;
const #6 = Asciz	scala/reflect/LabelSymbol$;
const #7 = class	#6;	//  scala/reflect/LabelSymbol$
const #8 = Asciz	MODULE$;
const #9 = Asciz	Lscala/reflect/LabelSymbol$;;
const #10 = NameAndType	#8:#9;//  MODULE$:Lscala/reflect/LabelSymbol$;
const #11 = Field	#7.#10;	//  scala/reflect/LabelSymbol$.MODULE$:Lscala/reflect/LabelSymbol$;
const #12 = NameAndType	#3:#4;//  andThen:(Lscala/Function1;)Lscala/Function1;
const #13 = Method	#7.#12;	//  scala/reflect/LabelSymbol$.andThen:(Lscala/Function1;)Lscala/Function1;
const #14 = Asciz	compose;
const #15 = NameAndType	#14:#4;//  compose:(Lscala/Function1;)Lscala/Function1;
const #16 = Method	#7.#15;	//  scala/reflect/LabelSymbol$.compose:(Lscala/Function1;)Lscala/Function1;
const #17 = Asciz	tpe;
const #18 = Asciz	Lscala/reflect/NamedType;;
const #19 = Asciz	owner;
const #20 = Asciz	Lscala/reflect/NoSymbol$;;
const #21 = Asciz	name;
const #22 = Asciz	Ljava/lang/String;;
const #23 = Asciz	<init>;
const #24 = Asciz	(Ljava/lang/String;)V;
const #25 = Asciz	LineNumberTable;
const #26 = Asciz	scala/reflect/LabelSymbol;
const #27 = class	#26;	//  scala/reflect/LabelSymbol
const #28 = NameAndType	#21:#22;//  name:Ljava/lang/String;
const #29 = Field	#27.#28;	//  scala/reflect/LabelSymbol.name:Ljava/lang/String;
const #30 = Asciz	scala/reflect/Symbol;
const #31 = class	#30;	//  scala/reflect/Symbol
const #32 = Asciz	()V;
const #33 = NameAndType	#23:#32;//  "<init>":()V
const #34 = Method	#31.#33;	//  scala/reflect/Symbol."<init>":()V
const #35 = Asciz	scala/Product$class;
const #36 = class	#35;	//  scala/Product$class
const #37 = Asciz	$init$;
const #38 = Asciz	(Lscala/Product;)V;
const #39 = NameAndType	#37:#38;//  $init$:(Lscala/Product;)V
const #40 = Method	#36.#39;	//  scala/Product$class.$init$:(Lscala/Product;)V
const #41 = Asciz	scala/reflect/NoSymbol$;
const #42 = class	#41;	//  scala/reflect/NoSymbol$
const #43 = NameAndType	#8:#20;//  MODULE$:Lscala/reflect/NoSymbol$;
const #44 = Field	#42.#43;	//  scala/reflect/NoSymbol$.MODULE$:Lscala/reflect/NoSymbol$;
const #45 = NameAndType	#19:#20;//  owner:Lscala/reflect/NoSymbol$;
const #46 = Field	#27.#45;	//  scala/reflect/LabelSymbol.owner:Lscala/reflect/NoSymbol$;
const #47 = Asciz	scala/reflect/NamedType;
const #48 = class	#47;	//  scala/reflect/NamedType
const #49 = Asciz	scala.Unit;
const #50 = String	#49;	//  scala.Unit
const #51 = NameAndType	#23:#24;//  "<init>":(Ljava/lang/String;)V
const #52 = Method	#48.#51;	//  scala/reflect/NamedType."<init>":(Ljava/lang/String;)V
const #53 = NameAndType	#17:#18;//  tpe:Lscala/reflect/NamedType;
const #54 = Field	#27.#53;	//  scala/reflect/LabelSymbol.tpe:Lscala/reflect/NamedType;
const #55 = Asciz	this;
const #56 = Asciz	Lscala/reflect/LabelSymbol;;
const #57 = Asciz	LocalVariableTable;
const #58 = Asciz	gd7$1;
const #59 = Asciz	(Ljava/lang/String;)Z;
const #60 = Asciz	()Ljava/lang/String;;
const #61 = NameAndType	#21:#60;//  name:()Ljava/lang/String;
const #62 = Method	#27.#61;	//  scala/reflect/LabelSymbol.name:()Ljava/lang/String;
const #63 = Asciz	java/lang/Object;
const #64 = class	#63;	//  java/lang/Object
const #65 = Asciz	equals;
const #66 = Asciz	(Ljava/lang/Object;)Z;
const #67 = NameAndType	#65:#66;//  equals:(Ljava/lang/Object;)Z
const #68 = Method	#64.#67;	//  java/lang/Object.equals:(Ljava/lang/Object;)Z
const #69 = Asciz	()Lscala/reflect/Symbol;;
const #70 = Asciz	()Lscala/reflect/NoSymbol$;;
const #71 = NameAndType	#19:#70;//  owner:()Lscala/reflect/NoSymbol$;
const #72 = Method	#27.#71;	//  scala/reflect/LabelSymbol.owner:()Lscala/reflect/NoSymbol$;
const #73 = Asciz	()Lscala/reflect/Type;;
const #74 = Asciz	()Lscala/reflect/NamedType;;
const #75 = NameAndType	#17:#74;//  tpe:()Lscala/reflect/NamedType;
const #76 = Method	#27.#75;	//  scala/reflect/LabelSymbol.tpe:()Lscala/reflect/NamedType;
const #77 = Asciz	canEqual;
const #78 = Asciz	productElement;
const #79 = Asciz	(I)Ljava/lang/Object;;
const #80 = Asciz	scala/MatchError;
const #81 = class	#80;	//  scala/MatchError
const #82 = Asciz	scala/runtime/BoxesRunTime;
const #83 = class	#82;	//  scala/runtime/BoxesRunTime
const #84 = Asciz	boxToInteger;
const #85 = Asciz	(I)Ljava/lang/Integer;;
const #86 = NameAndType	#84:#85;//  boxToInteger:(I)Ljava/lang/Integer;
const #87 = Method	#83.#86;	//  scala/runtime/BoxesRunTime.boxToInteger:(I)Ljava/lang/Integer;
const #88 = Asciz	toString;
const #89 = NameAndType	#88:#60;//  toString:()Ljava/lang/String;
const #90 = Method	#64.#89;	//  java/lang/Object.toString:()Ljava/lang/String;
const #91 = Method	#81.#51;	//  scala/MatchError."<init>":(Ljava/lang/String;)V
const #92 = Asciz	java/lang/IndexOutOfBoundsException;
const #93 = class	#92;	//  java/lang/IndexOutOfBoundsException
const #94 = Method	#93.#51;	//  java/lang/IndexOutOfBoundsException."<init>":(Ljava/lang/String;)V
const #95 = Asciz	productArity;
const #96 = Asciz	()I;
const #97 = Asciz	productPrefix;
const #98 = Asciz	LabelSymbol;
const #99 = String	#98;	//  LabelSymbol
const #100 = NameAndType	#58:#59;//  gd7$1:(Ljava/lang/String;)Z
const #101 = Method	#27.#100;	//  scala/reflect/LabelSymbol.gd7$1:(Ljava/lang/String;)Z
const #102 = Asciz	scala/Equals;
const #103 = class	#102;	//  scala/Equals
const #104 = NameAndType	#77:#66;//  canEqual:(Ljava/lang/Object;)Z
const #105 = InterfaceMethod	#103.#104;	//  scala/Equals.canEqual:(Ljava/lang/Object;)Z
const #106 = Asciz	temp35;
const #107 = Asciz	temp36;
const #108 = Asciz	scala/runtime/ScalaRunTime$;
const #109 = class	#108;	//  scala/runtime/ScalaRunTime$
const #110 = Asciz	Lscala/runtime/ScalaRunTime$;;
const #111 = NameAndType	#8:#110;//  MODULE$:Lscala/runtime/ScalaRunTime$;
const #112 = Field	#109.#111;	//  scala/runtime/ScalaRunTime$.MODULE$:Lscala/runtime/ScalaRunTime$;
const #113 = Asciz	_toString;
const #114 = Asciz	(Lscala/Product;)Ljava/lang/String;;
const #115 = NameAndType	#113:#114;//  _toString:(Lscala/Product;)Ljava/lang/String;
const #116 = Method	#109.#115;	//  scala/runtime/ScalaRunTime$._toString:(Lscala/Product;)Ljava/lang/String;
const #117 = Asciz	hashCode;
const #118 = Asciz	_hashCode;
const #119 = Asciz	(Lscala/Product;)I;
const #120 = NameAndType	#118:#119;//  _hashCode:(Lscala/Product;)I
const #121 = Method	#109.#120;	//  scala/runtime/ScalaRunTime$._hashCode:(Lscala/Product;)I
const #122 = Asciz	copy;
const #123 = Asciz	(Ljava/lang/String;)Lscala/reflect/LabelSymbol;;
const #124 = Method	#27.#51;	//  scala/reflect/LabelSymbol."<init>":(Ljava/lang/String;)V
const #125 = Asciz	copy$default$1;
const #126 = Asciz	productElements;
const #127 = Asciz	()Lscala/collection/Iterator;;
const #128 = Asciz	(Lscala/Product;)Lscala/collection/Iterator;;
const #129 = NameAndType	#126:#128;//  productElements:(Lscala/Product;)Lscala/collection/Iterator;
const #130 = Method	#36.#129;	//  scala/Product$class.productElements:(Lscala/Product;)Lscala/collection/Iterator;
const #131 = Asciz	productIterator;
const #132 = NameAndType	#131:#128;//  productIterator:(Lscala/Product;)Lscala/collection/Iterator;
const #133 = Method	#36.#132;	//  scala/Product$class.productIterator:(Lscala/Product;)Lscala/collection/Iterator;
const #134 = Asciz	ScalaSig;
const #135 = Asciz	scala/ScalaObject;
const #136 = class	#135;	//  scala/ScalaObject
const #137 = Asciz	scala/Product;
const #138 = class	#137;	//  scala/Product
const #139 = Asciz	java/io/Serializable;
const #140 = class	#139;	//  java/io/Serializable

{
public static final scala.Function1 andThen(scala.Function1);
  Code:
   Stack=2, Locals=1, Args_size=1
   0:	getstatic	#11; //Field scala/reflect/LabelSymbol$.MODULE$:Lscala/reflect/LabelSymbol$;
   3:	aload_0
   4:	invokevirtual	#13; //Method scala/reflect/LabelSymbol$.andThen:(Lscala/Function1;)Lscala/Function1;
   7:	areturn

public static final scala.Function1 compose(scala.Function1);
  Code:
   Stack=2, Locals=1, Args_size=1
   0:	getstatic	#11; //Field scala/reflect/LabelSymbol$.MODULE$:Lscala/reflect/LabelSymbol$;
   3:	aload_0
   4:	invokevirtual	#16; //Method scala/reflect/LabelSymbol$.compose:(Lscala/Function1;)Lscala/Function1;
   7:	areturn

public scala.reflect.LabelSymbol(java.lang.String);
  Code:
   Stack=4, Locals=2, Args_size=2
   0:	aload_0
   1:	aload_1
   2:	putfield	#29; //Field name:Ljava/lang/String;
   5:	aload_0
   6:	invokespecial	#34; //Method scala/reflect/Symbol."<init>":()V
   9:	aload_0
   10:	invokestatic	#40; //Method scala/Product$class.$init$:(Lscala/Product;)V
   13:	aload_0
   14:	getstatic	#44; //Field scala/reflect/NoSymbol$.MODULE$:Lscala/reflect/NoSymbol$;
   17:	putfield	#46; //Field owner:Lscala/reflect/NoSymbol$;
   20:	aload_0
   21:	new	#48; //class scala/reflect/NamedType
   24:	dup
   25:	ldc	#50; //String scala.Unit
   27:	invokespecial	#52; //Method scala/reflect/NamedType."<init>":(Ljava/lang/String;)V
   30:	putfield	#54; //Field tpe:Lscala/reflect/NamedType;
   33:	return
  LineNumberTable: 
   line 69: 0
   line 70: 13
   line 71: 20

  LocalVariableTable: 
   Start  Length  Slot  Name   Signature
   0      34      0    this       Lscala/reflect/LabelSymbol;
   0      34      1    name       Ljava/lang/String;


public scala.reflect.Symbol owner();
  Code:
   Stack=1, Locals=1, Args_size=1
   0:	aload_0
   1:	invokevirtual	#72; //Method owner:()Lscala/reflect/NoSymbol$;
   4:	areturn
  LineNumberTable: 
   line 69: 0


public scala.reflect.Type tpe();
  Code:
   Stack=1, Locals=1, Args_size=1
   0:	aload_0
   1:	invokevirtual	#76; //Method tpe:()Lscala/reflect/NamedType;
   4:	areturn
  LineNumberTable: 
   line 69: 0


public boolean canEqual(java.lang.Object);
  Code:
   Stack=1, Locals=2, Args_size=2
   0:	aload_1
   1:	instanceof	#27; //class scala/reflect/LabelSymbol
   4:	ireturn
  LineNumberTable: 
   line 69: 0


public java.lang.Object productElement(int);
  Code:
   Stack=3, Locals=2, Args_size=2
   0:	iload_1
   1:	iconst_0
   2:	if_icmpne	29
   5:	iconst_1
   6:	ifeq	14
   9:	aload_0
   10:	invokevirtual	#62; //Method name:()Ljava/lang/String;
   13:	areturn
   14:	new	#81; //class scala/MatchError
   17:	dup
   18:	iload_1
   19:	invokestatic	#87; //Method scala/runtime/BoxesRunTime.boxToInteger:(I)Ljava/lang/Integer;
   22:	invokevirtual	#90; //Method java/lang/Object.toString:()Ljava/lang/String;
   25:	invokespecial	#91; //Method scala/MatchError."<init>":(Ljava/lang/String;)V
   28:	athrow
   29:	iconst_1
   30:	ifeq	48
   33:	new	#93; //class java/lang/IndexOutOfBoundsException
   36:	dup
   37:	iload_1
   38:	invokestatic	#87; //Method scala/runtime/BoxesRunTime.boxToInteger:(I)Ljava/lang/Integer;
   41:	invokevirtual	#90; //Method java/lang/Object.toString:()Ljava/lang/String;
   44:	invokespecial	#94; //Method java/lang/IndexOutOfBoundsException."<init>":(Ljava/lang/String;)V
   47:	athrow
   48:	new	#81; //class scala/MatchError
   51:	dup
   52:	iload_1
   53:	invokestatic	#87; //Method scala/runtime/BoxesRunTime.boxToInteger:(I)Ljava/lang/Integer;
   56:	invokevirtual	#90; //Method java/lang/Object.toString:()Ljava/lang/String;
   59:	invokespecial	#91; //Method scala/MatchError."<init>":(Ljava/lang/String;)V
   62:	athrow
  LineNumberTable: 
   line 69: 0
   line 21: 5
   line 69: 9
   line 21: 29
   line 69: 33


public int productArity();
  Code:
   Stack=1, Locals=1, Args_size=1
   0:	iconst_1
   1:	ireturn
  LineNumberTable: 
   line 69: 0


public java.lang.String productPrefix();
  Code:
   Stack=1, Locals=1, Args_size=1
   0:	ldc	#99; //String LabelSymbol
   2:	areturn
  LineNumberTable: 
   line 69: 0


public boolean equals(java.lang.Object);
  Code:
   Stack=3, Locals=4, Args_size=2
   0:	aload_0
   1:	aload_1
   2:	if_acmpeq	71
   5:	aload_1
   6:	instanceof	#27; //class scala/reflect/LabelSymbol
   9:	ifeq	63
   12:	aload_1
   13:	checkcast	#27; //class scala/reflect/LabelSymbol
   16:	astore_2
   17:	aload_2
   18:	invokevirtual	#62; //Method name:()Ljava/lang/String;
   21:	astore_3
   22:	aload_0
   23:	aload_3
   24:	invokespecial	#101; //Method gd7$1:(Ljava/lang/String;)Z
   27:	ifeq	43
   30:	aload_1
   31:	checkcast	#27; //class scala/reflect/LabelSymbol
   34:	aload_0
   35:	invokeinterface	#105,  2; //InterfaceMethod scala/Equals.canEqual:(Ljava/lang/Object;)Z
   40:	goto	68
   43:	iconst_1
   44:	ifeq	51
   47:	iconst_0
   48:	goto	68
   51:	new	#81; //class scala/MatchError
   54:	dup
   55:	aload_1
   56:	invokevirtual	#90; //Method java/lang/Object.toString:()Ljava/lang/String;
   59:	invokespecial	#91; //Method scala/MatchError."<init>":(Ljava/lang/String;)V
   62:	athrow
   63:	iconst_1
   64:	ifeq	77
   67:	iconst_0
   68:	ifeq	75
   71:	iconst_1
   72:	goto	76
   75:	iconst_0
   76:	ireturn
   77:	new	#81; //class scala/MatchError
   80:	dup
   81:	aload_1
   82:	invokevirtual	#90; //Method java/lang/Object.toString:()Ljava/lang/String;
   85:	invokespecial	#91; //Method scala/MatchError."<init>":(Ljava/lang/String;)V
   88:	athrow
  LineNumberTable: 
   line 69: 0
   line 21: 43
   line 69: 51
   line 21: 63
   line 69: 68

  LocalVariableTable: 
   Start  Length  Slot  Name   Signature
   0      89      0    this       Lscala/reflect/LabelSymbol;
   17      46      2    temp35       Lscala/reflect/LabelSymbol;
   22      41      3    temp36       Ljava/lang/String;


public java.lang.String toString();
  Code:
   Stack=2, Locals=1, Args_size=1
   0:	getstatic	#112; //Field scala/runtime/ScalaRunTime$.MODULE$:Lscala/runtime/ScalaRunTime$;
   3:	aload_0
   4:	invokevirtual	#116; //Method scala/runtime/ScalaRunTime$._toString:(Lscala/Product;)Ljava/lang/String;
   7:	areturn
  LineNumberTable: 
   line 69: 0


public int hashCode();
  Code:
   Stack=2, Locals=1, Args_size=1
   0:	getstatic	#112; //Field scala/runtime/ScalaRunTime$.MODULE$:Lscala/runtime/ScalaRunTime$;
   3:	aload_0
   4:	invokevirtual	#121; //Method scala/runtime/ScalaRunTime$._hashCode:(Lscala/Product;)I
   7:	ireturn
  LineNumberTable: 
   line 69: 0


public scala.reflect.LabelSymbol copy(java.lang.String);
  Code:
   Stack=3, Locals=2, Args_size=2
   0:	new	#27; //class scala/reflect/LabelSymbol
   3:	dup
   4:	aload_1
   5:	invokespecial	#124; //Method "<init>":(Ljava/lang/String;)V
   8:	areturn
  LineNumberTable: 
   line 69: 0

  LocalVariableTable: 
   Start  Length  Slot  Name   Signature
   0      9      0    this       Lscala/reflect/LabelSymbol;
   0      9      1    name       Ljava/lang/String;


public scala.reflect.NamedType tpe();
  Code:
   Stack=1, Locals=1, Args_size=1
   0:	aload_0
   1:	getfield	#54; //Field tpe:Lscala/reflect/NamedType;
   4:	areturn
  LineNumberTable: 
   line 71: 0


public scala.reflect.NoSymbol$ owner();
  Code:
   Stack=1, Locals=1, Args_size=1
   0:	aload_0
   1:	getfield	#46; //Field owner:Lscala/reflect/NoSymbol$;
   4:	areturn
  LineNumberTable: 
   line 70: 0


public java.lang.String name();
  Code:
   Stack=1, Locals=1, Args_size=1
   0:	aload_0
   1:	getfield	#29; //Field name:Ljava/lang/String;
   4:	areturn
  LineNumberTable: 
   line 69: 0


public java.lang.String copy$default$1();
  Code:
   Stack=1, Locals=1, Args_size=1
   0:	aload_0
   1:	invokevirtual	#62; //Method name:()Ljava/lang/String;
   4:	areturn
  LineNumberTable: 
   line 69: 0


public scala.collection.Iterator productElements();
  Code:
   Stack=1, Locals=1, Args_size=1
   0:	aload_0
   1:	invokestatic	#130; //Method scala/Product$class.productElements:(Lscala/Product;)Lscala/collection/Iterator;
   4:	areturn
  LineNumberTable: 
   line 69: 0


public scala.collection.Iterator productIterator();
  Code:
   Stack=1, Locals=1, Args_size=1
   0:	aload_0
   1:	invokestatic	#133; //Method scala/Product$class.productIterator:(Lscala/Product;)Lscala/collection/Iterator;
   4:	areturn
  LineNumberTable: 
   line 69: 0


}

