Compiled from "Symbol.scala"
public class scala.reflect.LabelSymbol extends scala.reflect.Symbol implements scala.ScalaObject,scala.Product,java.io.Serializable
  SourceFile: "Symbol.scala"
  ScalaSig: length = 0x352
   05 00 FFFFFF81 00 06 08 01 02 FFFFFF84 FFFFFF80 FFFFFF80 FFFFFF80 40 07 02 0B
   4C 61 62 65 6C 53 79 6D 62 6F 6C 0A 02 03 04 01
   07 72 65 66 6C 65 63 74 0A 01 05 01 05 73 63 61
   6C 61 03 00 13 04 00 08 0C 10 10 02 09 0A 0D 01
   02 09 02 0B 02 02 06 53 79 6D 62 6F 6C 10 02 0D
   0E 0D 01 04 09 02 0F 04 02 0B 53 63 61 6C 61 4F
   62 6A 65 63 74 10 02 0D 11 09 02 12 04 02 07 50
   72 6F 64 75 63 74 08 08 14 00 FFFFFF82 FFFFFFCA FFFFFF80 FFFFFF84 00 15
   01 04 6E 61 6D 65 15 01 16 10 02 17 1A 0E 02 0D
   18 09 02 19 04 01 06 50 72 65 64 65 66 09 02 1B
   1C 02 06 53 74 72 69 6E 67 0A 02 19 04 08 08 1E
   00 FFFFFF82 FFFFFF88 FFFFFFA0 FFFFFF80 04 16 01 05 6E 61 6D 65 20 08 05
   20 00 FFFFFF84 00 21 01 06 3C 69 6E 69 74 3E 14 02 22
   23 10 02 09 00 08 05 14 1F FFFFFFC0 00 16 08 07 25 00
   FFFFFFC2 FFFFFF80 FFFFFF84 00 26 01 05 6F 77 6E 65 72 15 01 27 0E
   02 09 28 09 02 29 02 01 08 4E 6F 53 79 6D 62 6F
   6C 08 06 2B 00 FFFFFFA0 FFFFFF80 04 27 01 06 6F 77 6E 65 72
   20 08 07 2D 00 FFFFFFC2 FFFFFF80 FFFFFF84 00 2E 01 03 74 70 65 15
   01 2F 10 02 09 30 09 02 31 02 02 09 4E 61 6D 65
   64 54 79 70 65 08 06 33 00 FFFFFFA0 FFFFFF80 04 2F 01 04 74
   70 65 20 08 07 35 00 FFFFFF81 FFFFFF80 FFFFFF84 00 36 01 04 63 6F
   70 79 14 02 22 37 08 08 38 14 34 FFFFFF90 FFFFFF80 FFFFFFC0 00 16
   08 07 39 00 FFFFFF91 FFFFFF80 FFFFFF84 00 15 01 0E 63 6F 70 79 24
   64 65 66 61 75 6C 74 24 31 08 08 3B 00 FFFFFF84 FFFFFF80 FFFFFF80
   FFFFFF84 20 3C 01 08 68 61 73 68 43 6F 64 65 14 01 3D
   10 02 0D 3E 09 02 3F 04 02 03 49 6E 74 08 08 41
   00 FFFFFF84 FFFFFF80 FFFFFF80 FFFFFF84 20 42 01 08 74 6F 53 74 72 69 6E
   67 14 01 16 08 08 44 00 FFFFFF84 FFFFFF80 FFFFFF80 FFFFFF84 20 45 01 06
   65 71 75 61 6C 73 14 02 46 49 10 02 0D 47 09 02
   48 04 02 07 42 6F 6F 6C 65 61 6E 08 07 4A 43 FFFFFF81
   FFFFFF80 FFFFFFC0 00 4B 01 03 78 24 31 10 02 0D 4C 09 02 4D
   04 02 03 41 6E 79 08 08 4F 00 FFFFFF84 FFFFFF80 FFFFFF80 FFFFFF84 20 50
   01 0D 70 72 6F 64 75 63 74 50 72 65 66 69 78 15
   01 51 10 02 52 57 0D 01 53 0A 02 54 55 01 04 6C
   61 6E 67 0A 01 56 01 04 6A 61 76 61 09 02 1B 53
   08 08 59 00 FFFFFF84 FFFFFF80 FFFFFF80 FFFFFF84 20 5A 01 0C 70 72 6F 64
   75 63 74 41 72 69 74 79 15 01 3D 08 08 5C 00 FFFFFF84
   FFFFFF80 FFFFFF80 FFFFFF84 20 5D 01 0E 70 72 6F 64 75 63 74 45 6C
   65 6D 65 6E 74 14 02 4B 5E 08 07 4A 5B FFFFFF81 FFFFFF80 FFFFFFC0
   00 3D 08 08 60 00 FFFFFF84 FFFFFF80 FFFFFF80 FFFFFF84 20 61 01 08 63 61
   6E 45 71 75 61 6C 14 02 46 62 08 07 4A 5F FFFFFF81 FFFFFF80
   FFFFFFC0 00 4B 28 02 00 64 10 02 0D 65 09 02 66 04 02
   0C 73 65 72 69 61 6C 69 7A 61 62 6C 65 07 07 68
   02 FFFFFF81 FFFFFF80 FFFFFF88 02 69 01 0B 4C 61 62 65 6C 53 79 6D
   62 6F 6C 10 02 09 6A 06 08 01 02 FFFFFF84 FFFFFF81 FFFFFF80 FFFFFF88 02
   6B 13 04 6A 6C 6F 0C 10 02 52 6D 09 02 6E 53 02
   06 4F 62 6A 65 63 74 10 04 0D 70 16 22 09 02 71
   04 02 09 46 75 6E 63 74 69 6F 6E 31 08 05 20 6A
   FFFFFF84 00 73 14 01 69 08 07 75 6A FFFFFF81 FFFFFF80 FFFFFF84 40 76 01
   05 61 70 70 6C 79 14 02 22 77 08 05 14 74 FFFFFFC0 00
   16 08 07 79 6A FFFFFF81 FFFFFF80 FFFFFF84 40 7A 01 07 75 6E 61 70
   70 6C 79 14 02 7B 7E 10 03 0D 7C 16 09 02 7D 04
   02 04 53 6F 6D 65 08 05 7F 78 FFFFFFC0 00 22 01 03 78
   24 30 
  minor version: 0
  major version: 49
  Constant pool:
const #1 = Asciz	SourceFile;
const #2 = Asciz	Symbol.scala;
const #3 = Asciz	tpe;
const #4 = Asciz	Lscala/reflect/NamedType;;
const #5 = Asciz	owner;
const #6 = Asciz	Lscala/reflect/NoSymbol$;;
const #7 = Asciz	name;
const #8 = Asciz	Ljava/lang/String;;
const #9 = Asciz	<init>;
const #10 = Asciz	(Ljava/lang/String;)V;
const #11 = Asciz	Code;
const #12 = Asciz	LineNumberTable;
const #13 = Asciz	scala/reflect/LabelSymbol;
const #14 = class	#13;	//  scala/reflect/LabelSymbol
const #15 = NameAndType	#7:#8;//  name:Ljava/lang/String;
const #16 = Field	#14.#15;	//  scala/reflect/LabelSymbol.name:Ljava/lang/String;
const #17 = Asciz	scala/reflect/Symbol;
const #18 = class	#17;	//  scala/reflect/Symbol
const #19 = Asciz	()V;
const #20 = NameAndType	#9:#19;//  "<init>":()V
const #21 = Method	#18.#20;	//  scala/reflect/Symbol."<init>":()V
const #22 = Asciz	scala/Product$class;
const #23 = class	#22;	//  scala/Product$class
const #24 = Asciz	$init$;
const #25 = Asciz	(Lscala/Product;)V;
const #26 = NameAndType	#24:#25;//  $init$:(Lscala/Product;)V
const #27 = Method	#23.#26;	//  scala/Product$class.$init$:(Lscala/Product;)V
const #28 = Asciz	scala/reflect/NoSymbol$;
const #29 = class	#28;	//  scala/reflect/NoSymbol$
const #30 = Asciz	MODULE$;
const #31 = NameAndType	#30:#6;//  MODULE$:Lscala/reflect/NoSymbol$;
const #32 = Field	#29.#31;	//  scala/reflect/NoSymbol$.MODULE$:Lscala/reflect/NoSymbol$;
const #33 = NameAndType	#5:#6;//  owner:Lscala/reflect/NoSymbol$;
const #34 = Field	#14.#33;	//  scala/reflect/LabelSymbol.owner:Lscala/reflect/NoSymbol$;
const #35 = Asciz	scala/reflect/NamedType;
const #36 = class	#35;	//  scala/reflect/NamedType
const #37 = Asciz	scala.Unit;
const #38 = String	#37;	//  scala.Unit
const #39 = NameAndType	#9:#10;//  "<init>":(Ljava/lang/String;)V
const #40 = Method	#36.#39;	//  scala/reflect/NamedType."<init>":(Ljava/lang/String;)V
const #41 = NameAndType	#3:#4;//  tpe:Lscala/reflect/NamedType;
const #42 = Field	#14.#41;	//  scala/reflect/LabelSymbol.tpe:Lscala/reflect/NamedType;
const #43 = Asciz	this;
const #44 = Asciz	Lscala/reflect/LabelSymbol;;
const #45 = Asciz	LocalVariableTable;
const #46 = Asciz	gd7$1;
const #47 = Asciz	(Ljava/lang/String;)Z;
const #48 = Asciz	()Ljava/lang/String;;
const #49 = NameAndType	#7:#48;//  name:()Ljava/lang/String;
const #50 = Method	#14.#49;	//  scala/reflect/LabelSymbol.name:()Ljava/lang/String;
const #51 = Asciz	java/lang/Object;
const #52 = class	#51;	//  java/lang/Object
const #53 = Asciz	equals;
const #54 = Asciz	(Ljava/lang/Object;)Z;
const #55 = NameAndType	#53:#54;//  equals:(Ljava/lang/Object;)Z
const #56 = Method	#52.#55;	//  java/lang/Object.equals:(Ljava/lang/Object;)Z
const #57 = Asciz	()Lscala/reflect/Symbol;;
const #58 = Asciz	()Lscala/reflect/NoSymbol$;;
const #59 = NameAndType	#5:#58;//  owner:()Lscala/reflect/NoSymbol$;
const #60 = Method	#14.#59;	//  scala/reflect/LabelSymbol.owner:()Lscala/reflect/NoSymbol$;
const #61 = Asciz	()Lscala/reflect/Type;;
const #62 = Asciz	()Lscala/reflect/NamedType;;
const #63 = NameAndType	#3:#62;//  tpe:()Lscala/reflect/NamedType;
const #64 = Method	#14.#63;	//  scala/reflect/LabelSymbol.tpe:()Lscala/reflect/NamedType;
const #65 = Asciz	canEqual;
const #66 = Asciz	productElement;
const #67 = Asciz	(I)Ljava/lang/Object;;
const #68 = Asciz	scala/runtime/BoxesRunTime;
const #69 = class	#68;	//  scala/runtime/BoxesRunTime
const #70 = Asciz	boxToInteger;
const #71 = Asciz	(I)Ljava/lang/Integer;;
const #72 = NameAndType	#70:#71;//  boxToInteger:(I)Ljava/lang/Integer;
const #73 = Method	#69.#72;	//  scala/runtime/BoxesRunTime.boxToInteger:(I)Ljava/lang/Integer;
const #74 = Asciz	(Ljava/lang/Object;Ljava/lang/Object;)Z;
const #75 = NameAndType	#53:#74;//  equals:(Ljava/lang/Object;Ljava/lang/Object;)Z
const #76 = Method	#69.#75;	//  scala/runtime/BoxesRunTime.equals:(Ljava/lang/Object;Ljava/lang/Object;)Z
const #77 = Asciz	java/lang/IndexOutOfBoundsException;
const #78 = class	#77;	//  java/lang/IndexOutOfBoundsException
const #79 = Asciz	toString;
const #80 = NameAndType	#79:#48;//  toString:()Ljava/lang/String;
const #81 = Method	#52.#80;	//  java/lang/Object.toString:()Ljava/lang/String;
const #82 = Method	#78.#39;	//  java/lang/IndexOutOfBoundsException."<init>":(Ljava/lang/String;)V
const #83 = Asciz	temp37;
const #84 = Asciz	I;
const #85 = Asciz	productArity;
const #86 = Asciz	()I;
const #87 = Asciz	productPrefix;
const #88 = Asciz	LabelSymbol;
const #89 = String	#88;	//  LabelSymbol
const #90 = NameAndType	#46:#47;//  gd7$1:(Ljava/lang/String;)Z
const #91 = Method	#14.#90;	//  scala/reflect/LabelSymbol.gd7$1:(Ljava/lang/String;)Z
const #92 = Asciz	scala/Product;
const #93 = class	#92;	//  scala/Product
const #94 = NameAndType	#65:#54;//  canEqual:(Ljava/lang/Object;)Z
const #95 = InterfaceMethod	#93.#94;	//  scala/Product.canEqual:(Ljava/lang/Object;)Z
const #96 = Asciz	temp34;
const #97 = Asciz	Ljava/lang/Object;;
const #98 = Asciz	temp35;
const #99 = Asciz	temp36;
const #100 = Asciz	name$3;
const #101 = Asciz	scala/runtime/ScalaRunTime$;
const #102 = class	#101;	//  scala/runtime/ScalaRunTime$
const #103 = Asciz	Lscala/runtime/ScalaRunTime$;;
const #104 = NameAndType	#30:#103;//  MODULE$:Lscala/runtime/ScalaRunTime$;
const #105 = Field	#102.#104;	//  scala/runtime/ScalaRunTime$.MODULE$:Lscala/runtime/ScalaRunTime$;
const #106 = Asciz	_toString;
const #107 = Asciz	(Lscala/Product;)Ljava/lang/String;;
const #108 = NameAndType	#106:#107;//  _toString:(Lscala/Product;)Ljava/lang/String;
const #109 = Method	#102.#108;	//  scala/runtime/ScalaRunTime$._toString:(Lscala/Product;)Ljava/lang/String;
const #110 = Asciz	hashCode;
const #111 = Asciz	_hashCode;
const #112 = Asciz	(Lscala/Product;)I;
const #113 = NameAndType	#111:#112;//  _hashCode:(Lscala/Product;)I
const #114 = Method	#102.#113;	//  scala/runtime/ScalaRunTime$._hashCode:(Lscala/Product;)I
const #115 = Asciz	copy$default$1;
const #116 = Asciz	copy;
const #117 = Asciz	(Ljava/lang/String;)Lscala/reflect/LabelSymbol;;
const #118 = Method	#14.#39;	//  scala/reflect/LabelSymbol."<init>":(Ljava/lang/String;)V
const #119 = Asciz	productElements;
const #120 = Asciz	()Lscala/collection/Iterator;;
const #121 = Asciz	(Lscala/Product;)Lscala/collection/Iterator;;
const #122 = NameAndType	#119:#121;//  productElements:(Lscala/Product;)Lscala/collection/Iterator;
const #123 = Method	#23.#122;	//  scala/Product$class.productElements:(Lscala/Product;)Lscala/collection/Iterator;
const #124 = Asciz	productIterator;
const #125 = NameAndType	#124:#121;//  productIterator:(Lscala/Product;)Lscala/collection/Iterator;
const #126 = Method	#23.#125;	//  scala/Product$class.productIterator:(Lscala/Product;)Lscala/collection/Iterator;
const #127 = Asciz	ScalaSig;
const #128 = Asciz	scala/ScalaObject;
const #129 = class	#128;	//  scala/ScalaObject
const #130 = Asciz	java/io/Serializable;
const #131 = class	#130;	//  java/io/Serializable

{
public scala.reflect.LabelSymbol(java.lang.String);
  Code:
   Stack=4, Locals=2, Args_size=2
   0:	aload_0
   1:	aload_1
   2:	putfield	#16; //Field name:Ljava/lang/String;
   5:	aload_0
   6:	invokespecial	#21; //Method scala/reflect/Symbol."<init>":()V
   9:	aload_0
   10:	invokestatic	#27; //Method scala/Product$class.$init$:(Lscala/Product;)V
   13:	aload_0
   14:	getstatic	#32; //Field scala/reflect/NoSymbol$.MODULE$:Lscala/reflect/NoSymbol$;
   17:	putfield	#34; //Field owner:Lscala/reflect/NoSymbol$;
   20:	aload_0
   21:	new	#36; //class scala/reflect/NamedType
   24:	dup
   25:	ldc	#38; //String scala.Unit
   27:	invokespecial	#40; //Method scala/reflect/NamedType."<init>":(Ljava/lang/String;)V
   30:	putfield	#42; //Field tpe:Lscala/reflect/NamedType;
   33:	return
  LineNumberTable: 
   line 71: 0
   line 72: 13
   line 73: 20

  LocalVariableTable: 
   Start  Length  Slot  Name   Signature
   0      34      0    this       Lscala/reflect/LabelSymbol;
   0      34      1    name       Ljava/lang/String;


public scala.reflect.Symbol owner();
  Code:
   Stack=1, Locals=1, Args_size=1
   0:	aload_0
   1:	invokevirtual	#60; //Method owner:()Lscala/reflect/NoSymbol$;
   4:	areturn
  LineNumberTable: 
   line 71: 0


public scala.reflect.Type tpe();
  Code:
   Stack=1, Locals=1, Args_size=1
   0:	aload_0
   1:	invokevirtual	#64; //Method tpe:()Lscala/reflect/NamedType;
   4:	areturn
  LineNumberTable: 
   line 71: 0


public boolean canEqual(java.lang.Object);
  Code:
   Stack=1, Locals=2, Args_size=2
   0:	aload_1
   1:	instanceof	#14; //class scala/reflect/LabelSymbol
   4:	ireturn
  LineNumberTable: 
   line 71: 0


public java.lang.Object productElement(int);
  Code:
   Stack=3, Locals=3, Args_size=2
   0:	iload_1
   1:	istore_2
   2:	iload_2
   3:	invokestatic	#73; //Method scala/runtime/BoxesRunTime.boxToInteger:(I)Ljava/lang/Integer;
   6:	iconst_0
   7:	invokestatic	#73; //Method scala/runtime/BoxesRunTime.boxToInteger:(I)Ljava/lang/Integer;
   10:	invokestatic	#76; //Method scala/runtime/BoxesRunTime.equals:(Ljava/lang/Object;Ljava/lang/Object;)Z
   13:	ifeq	21
   16:	aload_0
   17:	invokevirtual	#50; //Method name:()Ljava/lang/String;
   20:	areturn
   21:	new	#78; //class java/lang/IndexOutOfBoundsException
   24:	dup
   25:	iload_1
   26:	invokestatic	#73; //Method scala/runtime/BoxesRunTime.boxToInteger:(I)Ljava/lang/Integer;
   29:	invokevirtual	#81; //Method java/lang/Object.toString:()Ljava/lang/String;
   32:	invokespecial	#82; //Method java/lang/IndexOutOfBoundsException."<init>":(Ljava/lang/String;)V
   35:	athrow
  LineNumberTable: 
   line 71: 0

  LocalVariableTable: 
   Start  Length  Slot  Name   Signature
   0      36      0    this       Lscala/reflect/LabelSymbol;
   2      34      2    temp37       I


public int productArity();
  Code:
   Stack=1, Locals=1, Args_size=1
   0:	iconst_1
   1:	ireturn
  LineNumberTable: 
   line 71: 0


public java.lang.String productPrefix();
  Code:
   Stack=1, Locals=1, Args_size=1
   0:	ldc	#89; //String LabelSymbol
   2:	areturn
  LineNumberTable: 
   line 71: 0


public boolean equals(java.lang.Object);
  Code:
   Stack=2, Locals=6, Args_size=2
   0:	aload_0
   1:	aload_1
   2:	if_acmpeq	59
   5:	aload_1
   6:	astore_2
   7:	aload_2
   8:	instanceof	#14; //class scala/reflect/LabelSymbol
   11:	ifeq	55
   14:	aload_2
   15:	checkcast	#14; //class scala/reflect/LabelSymbol
   18:	astore_3
   19:	aload_3
   20:	invokevirtual	#50; //Method name:()Ljava/lang/String;
   23:	astore	4
   25:	aload	4
   27:	astore	5
   29:	aload_0
   30:	aload	5
   32:	invokespecial	#91; //Method gd7$1:(Ljava/lang/String;)Z
   35:	ifeq	51
   38:	aload_1
   39:	checkcast	#14; //class scala/reflect/LabelSymbol
   42:	aload_0
   43:	invokeinterface	#95,  2; //InterfaceMethod scala/Product.canEqual:(Ljava/lang/Object;)Z
   48:	goto	56
   51:	iconst_0
   52:	goto	56
   55:	iconst_0
   56:	ifeq	63
   59:	iconst_1
   60:	goto	64
   63:	iconst_0
   64:	ireturn
  LineNumberTable: 
   line 71: 0
   line 26: 51
   line 71: 56

  LocalVariableTable: 
   Start  Length  Slot  Name   Signature
   0      65      0    this       Lscala/reflect/LabelSymbol;
   7      52      2    temp34       Ljava/lang/Object;
   19      36      3    temp35       Lscala/reflect/LabelSymbol;
   25      30      4    temp36       Ljava/lang/String;
   29      26      5    name$3       Ljava/lang/String;


public java.lang.String toString();
  Code:
   Stack=2, Locals=1, Args_size=1
   0:	getstatic	#105; //Field scala/runtime/ScalaRunTime$.MODULE$:Lscala/runtime/ScalaRunTime$;
   3:	aload_0
   4:	invokevirtual	#109; //Method scala/runtime/ScalaRunTime$._toString:(Lscala/Product;)Ljava/lang/String;
   7:	areturn
  LineNumberTable: 
   line 71: 0


public int hashCode();
  Code:
   Stack=2, Locals=1, Args_size=1
   0:	getstatic	#105; //Field scala/runtime/ScalaRunTime$.MODULE$:Lscala/runtime/ScalaRunTime$;
   3:	aload_0
   4:	invokevirtual	#114; //Method scala/runtime/ScalaRunTime$._hashCode:(Lscala/Product;)I
   7:	ireturn
  LineNumberTable: 
   line 71: 0


public java.lang.String copy$default$1();
  Code:
   Stack=1, Locals=1, Args_size=1
   0:	aload_0
   1:	invokevirtual	#50; //Method name:()Ljava/lang/String;
   4:	areturn
  LineNumberTable: 
   line 71: 0


public scala.reflect.LabelSymbol copy(java.lang.String);
  Code:
   Stack=3, Locals=2, Args_size=2
   0:	new	#14; //class scala/reflect/LabelSymbol
   3:	dup
   4:	aload_1
   5:	invokespecial	#118; //Method "<init>":(Ljava/lang/String;)V
   8:	areturn
  LineNumberTable: 
   line 71: 0

  LocalVariableTable: 
   Start  Length  Slot  Name   Signature
   0      9      0    this       Lscala/reflect/LabelSymbol;
   0      9      1    name       Ljava/lang/String;


public scala.reflect.NamedType tpe();
  Code:
   Stack=1, Locals=1, Args_size=1
   0:	aload_0
   1:	getfield	#42; //Field tpe:Lscala/reflect/NamedType;
   4:	areturn
  LineNumberTable: 
   line 73: 0


public scala.reflect.NoSymbol$ owner();
  Code:
   Stack=1, Locals=1, Args_size=1
   0:	aload_0
   1:	getfield	#34; //Field owner:Lscala/reflect/NoSymbol$;
   4:	areturn
  LineNumberTable: 
   line 72: 0


public java.lang.String name();
  Code:
   Stack=1, Locals=1, Args_size=1
   0:	aload_0
   1:	getfield	#16; //Field name:Ljava/lang/String;
   4:	areturn
  LineNumberTable: 
   line 71: 0


public scala.collection.Iterator productElements();
  Code:
   Stack=1, Locals=1, Args_size=1
   0:	aload_0
   1:	invokestatic	#123; //Method scala/Product$class.productElements:(Lscala/Product;)Lscala/collection/Iterator;
   4:	areturn
  LineNumberTable: 
   line 71: 0


public scala.collection.Iterator productIterator();
  Code:
   Stack=1, Locals=1, Args_size=1
   0:	aload_0
   1:	invokestatic	#126; //Method scala/Product$class.productIterator:(Lscala/Product;)Lscala/collection/Iterator;
   4:	areturn
  LineNumberTable: 
   line 71: 0


}

