Compiled from "Symbol.scala"
public final class scala.reflect.NoSymbol extends java.lang.Object
  SourceFile: "Symbol.scala"
  ScalaSig: length = 0x247
   05 00 5A 07 05 01 02 FFFFFF88 42 07 01 08 4E 6F 53 79
   6D 62 6F 6C 0A 02 03 04 01 07 72 65 66 6C 65 63
   74 0A 01 05 01 05 73 63 61 6C 61 03 00 10 02 08
   09 0D 01 02 06 08 0A 02 FFFFFF84 FFFFFF80 FFFFFF80 FFFFFF88 42 0B 02 08
   4E 6F 53 79 6D 62 6F 6C 13 04 09 0C 0F 13 10 02
   08 0D 09 02 0E 02 02 06 53 79 6D 62 6F 6C 10 02
   10 11 0D 01 04 09 02 12 04 02 0B 53 63 61 6C 61
   4F 62 6A 65 63 74 10 02 10 14 09 02 15 04 02 07
   50 72 6F 64 75 63 74 08 05 17 09 FFFFFF84 00 18 01 06
   3C 69 6E 69 74 3E 14 01 07 08 07 1A 09 FFFFFFC2 FFFFFF80 FFFFFF84
   00 1B 01 05 6F 77 6E 65 72 15 01 1C 10 02 10 1D
   09 02 1E 04 02 04 4E 75 6C 6C 08 06 20 09 FFFFFFA0 FFFFFF80
   04 1C 01 06 6F 77 6E 65 72 20 08 07 22 09 FFFFFFC2 FFFFFF80
   FFFFFF84 00 1B 01 04 6E 61 6D 65 08 06 24 09 FFFFFFA0 FFFFFF80 04
   1C 01 05 6E 61 6D 65 20 08 07 26 09 FFFFFFC2 FFFFFF80 FFFFFF84 00
   27 01 03 74 70 65 15 01 28 0E 02 08 29 09 02 2A
   02 01 06 4E 6F 54 79 70 65 08 06 2C 09 FFFFFFA0 FFFFFF80 04
   28 01 04 74 70 65 20 08 08 2E 09 FFFFFF84 FFFFFF80 FFFFFF80 FFFFFF84 22
   2F 01 08 74 6F 53 74 72 69 6E 67 14 01 30 10 02
   31 36 0D 01 32 0A 02 33 34 01 04 6C 61 6E 67 0A
   01 35 01 04 6A 61 76 61 09 02 37 32 02 06 53 74
   72 69 6E 67 08 08 39 09 FFFFFF84 FFFFFF80 FFFFFF80 FFFFFF84 20 3A 01 0D
   70 72 6F 64 75 63 74 50 72 65 66 69 78 15 01 30
   08 08 3C 09 FFFFFF84 FFFFFF80 FFFFFF80 FFFFFF84 20 3D 01 0C 70 72 6F 64
   75 63 74 41 72 69 74 79 15 01 3E 10 02 10 3F 09
   02 40 04 02 03 49 6E 74 08 08 42 09 FFFFFF84 FFFFFF80 FFFFFF80 FFFFFF84
   20 43 01 0E 70 72 6F 64 75 63 74 45 6C 65 6D 65
   6E 74 14 02 44 47 10 02 10 45 09 02 46 04 02 03
   41 6E 79 08 07 48 41 FFFFFF81 FFFFFF80 FFFFFFC0 00 3E 01 03 78 24
   31 08 08 4A 09 FFFFFF84 FFFFFF80 FFFFFF80 FFFFFF84 20 4B 01 08 63 61 6E
   45 71 75 61 6C 14 02 4C 4F 10 02 10 4D 09 02 4E
   04 02 07 42 6F 6F 6C 65 61 6E 08 07 48 49 FFFFFF81 FFFFFF80
   FFFFFFC0 00 44 08 08 51 09 FFFFFF84 FFFFFF80 FFFFFF80 FFFFFF84 08 52 01 0B 72
   65 61 64 52 65 73 6F 6C 76 65 14 01 53 10 02 31
   54 09 02 55 32 02 06 4F 62 6A 65 63 74 28 02 09
   57 10 02 10 58 09 02 59 04 02 0C 73 65 72 69 61
   6C 69 7A 61 62 6C 65 
  minor version: 0
  major version: 49
  Constant pool:
const #1 = Asciz	SourceFile;
const #2 = Asciz	Symbol.scala;
const #3 = Asciz	productElements;
const #4 = Asciz	()Lscala/collection/Iterator;;
const #5 = Asciz	Code;
const #6 = Asciz	scala/reflect/NoSymbol$;
const #7 = class	#6;	//  scala/reflect/NoSymbol$
const #8 = Asciz	MODULE$;
const #9 = Asciz	Lscala/reflect/NoSymbol$;;
const #10 = NameAndType	#8:#9;//  MODULE$:Lscala/reflect/NoSymbol$;
const #11 = Field	#7.#10;	//  scala/reflect/NoSymbol$.MODULE$:Lscala/reflect/NoSymbol$;
const #12 = NameAndType	#3:#4;//  productElements:()Lscala/collection/Iterator;
const #13 = Method	#7.#12;	//  scala/reflect/NoSymbol$.productElements:()Lscala/collection/Iterator;
const #14 = Asciz	productIterator;
const #15 = NameAndType	#14:#4;//  productIterator:()Lscala/collection/Iterator;
const #16 = Method	#7.#15;	//  scala/reflect/NoSymbol$.productIterator:()Lscala/collection/Iterator;
const #17 = Asciz	canEqual;
const #18 = Asciz	(Ljava/lang/Object;)Z;
const #19 = NameAndType	#17:#18;//  canEqual:(Ljava/lang/Object;)Z
const #20 = Method	#7.#19;	//  scala/reflect/NoSymbol$.canEqual:(Ljava/lang/Object;)Z
const #21 = Asciz	productElement;
const #22 = Asciz	(I)Ljava/lang/Object;;
const #23 = NameAndType	#21:#22;//  productElement:(I)Ljava/lang/Object;
const #24 = Method	#7.#23;	//  scala/reflect/NoSymbol$.productElement:(I)Ljava/lang/Object;
const #25 = Asciz	productArity;
const #26 = Asciz	()I;
const #27 = NameAndType	#25:#26;//  productArity:()I
const #28 = Method	#7.#27;	//  scala/reflect/NoSymbol$.productArity:()I
const #29 = Asciz	productPrefix;
const #30 = Asciz	()Ljava/lang/String;;
const #31 = NameAndType	#29:#30;//  productPrefix:()Ljava/lang/String;
const #32 = Method	#7.#31;	//  scala/reflect/NoSymbol$.productPrefix:()Ljava/lang/String;
const #33 = Asciz	tpe;
const #34 = Asciz	()Lscala/reflect/NoType$;;
const #35 = NameAndType	#33:#34;//  tpe:()Lscala/reflect/NoType$;
const #36 = Method	#7.#35;	//  scala/reflect/NoSymbol$.tpe:()Lscala/reflect/NoType$;
const #37 = Asciz	name;
const #38 = Asciz	()Lscala/runtime/Null$;;
const #39 = NameAndType	#37:#38;//  name:()Lscala/runtime/Null$;
const #40 = Method	#7.#39;	//  scala/reflect/NoSymbol$.name:()Lscala/runtime/Null$;
const #41 = Asciz	owner;
const #42 = NameAndType	#41:#38;//  owner:()Lscala/runtime/Null$;
const #43 = Method	#7.#42;	//  scala/reflect/NoSymbol$.owner:()Lscala/runtime/Null$;
const #44 = Asciz	ScalaSig;
const #45 = Asciz	scala/reflect/NoSymbol;
const #46 = class	#45;	//  scala/reflect/NoSymbol
const #47 = Asciz	java/lang/Object;
const #48 = class	#47;	//  java/lang/Object

{
public static final scala.collection.Iterator productElements();
  Code:
   Stack=1, Locals=0, Args_size=0
   0:	getstatic	#11; //Field scala/reflect/NoSymbol$.MODULE$:Lscala/reflect/NoSymbol$;
   3:	invokevirtual	#13; //Method scala/reflect/NoSymbol$.productElements:()Lscala/collection/Iterator;
   6:	areturn

public static final scala.collection.Iterator productIterator();
  Code:
   Stack=1, Locals=0, Args_size=0
   0:	getstatic	#11; //Field scala/reflect/NoSymbol$.MODULE$:Lscala/reflect/NoSymbol$;
   3:	invokevirtual	#16; //Method scala/reflect/NoSymbol$.productIterator:()Lscala/collection/Iterator;
   6:	areturn

public static final boolean canEqual(java.lang.Object);
  Code:
   Stack=2, Locals=1, Args_size=1
   0:	getstatic	#11; //Field scala/reflect/NoSymbol$.MODULE$:Lscala/reflect/NoSymbol$;
   3:	aload_0
   4:	invokevirtual	#20; //Method scala/reflect/NoSymbol$.canEqual:(Ljava/lang/Object;)Z
   7:	ireturn

public static final java.lang.Object productElement(int);
  Code:
   Stack=2, Locals=1, Args_size=1
   0:	getstatic	#11; //Field scala/reflect/NoSymbol$.MODULE$:Lscala/reflect/NoSymbol$;
   3:	iload_0
   4:	invokevirtual	#24; //Method scala/reflect/NoSymbol$.productElement:(I)Ljava/lang/Object;
   7:	areturn

public static final int productArity();
  Code:
   Stack=1, Locals=0, Args_size=0
   0:	getstatic	#11; //Field scala/reflect/NoSymbol$.MODULE$:Lscala/reflect/NoSymbol$;
   3:	invokevirtual	#28; //Method scala/reflect/NoSymbol$.productArity:()I
   6:	ireturn

public static final java.lang.String productPrefix();
  Code:
   Stack=1, Locals=0, Args_size=0
   0:	getstatic	#11; //Field scala/reflect/NoSymbol$.MODULE$:Lscala/reflect/NoSymbol$;
   3:	invokevirtual	#32; //Method scala/reflect/NoSymbol$.productPrefix:()Ljava/lang/String;
   6:	areturn

public static final scala.reflect.NoType$ tpe();
  Code:
   Stack=1, Locals=0, Args_size=0
   0:	getstatic	#11; //Field scala/reflect/NoSymbol$.MODULE$:Lscala/reflect/NoSymbol$;
   3:	invokevirtual	#36; //Method scala/reflect/NoSymbol$.tpe:()Lscala/reflect/NoType$;
   6:	areturn

public static final scala.runtime.Null$ name();
  Code:
   Stack=1, Locals=0, Args_size=0
   0:	getstatic	#11; //Field scala/reflect/NoSymbol$.MODULE$:Lscala/reflect/NoSymbol$;
   3:	invokevirtual	#40; //Method scala/reflect/NoSymbol$.name:()Lscala/runtime/Null$;
   6:	areturn

public static final scala.runtime.Null$ owner();
  Code:
   Stack=1, Locals=0, Args_size=0
   0:	getstatic	#11; //Field scala/reflect/NoSymbol$.MODULE$:Lscala/reflect/NoSymbol$;
   3:	invokevirtual	#43; //Method scala/reflect/NoSymbol$.owner:()Lscala/runtime/Null$;
   6:	areturn

}

