Compiled from "Symbol.scala"
public final class scala.reflect.NoSymbol extends java.lang.Object
  SourceFile: "Symbol.scala"
  ScalaSig: length = 0x247
   05 00 5A 07 05 01 02 FFFFFF88 42 07 01 08 4E 6F 53 79
   6D 62 6F 6C 0A 02 03 04 01 07 72 65 66 6C 65 63
   74 0A 01 05 01 05 73 63 61 6C 61 03 00 10 02 08
   09 0D 01 02 06 08 0A 02 FFFFFF84 FFFFFF80 FFFFFF80 FFFFFF88 42 0B 02 08
   4E 6F 53 79 6D 62 6F 6C 13 04 09 0C 0F 13 10 02
   08 0D 09 02 0E 02 02 06 53 79 6D 62 6F 6C 10 02
   10 11 0D 01 04 09 02 12 04 02 0B 53 63 61 6C 61
   4F 62 6A 65 63 74 10 02 10 14 09 02 15 04 02 07
   50 72 6F 64 75 63 74 08 05 17 09 FFFFFF84 00 18 01 06
   3C 69 6E 69 74 3E 14 01 07 08 07 1A 09 FFFFFFC2 FFFFFF80 FFFFFF84
   00 1B 01 05 6F 77 6E 65 72 15 01 1C 10 02 10 1D
   09 02 1E 04 02 04 4E 75 6C 6C 08 06 20 09 FFFFFFA0 FFFFFF80
   04 1C 01 06 6F 77 6E 65 72 20 08 07 22 09 FFFFFFC2 FFFFFF80
   FFFFFF84 00 1B 01 04 6E 61 6D 65 08 06 24 09 FFFFFFA0 FFFFFF80 04
   1C 01 05 6E 61 6D 65 20 08 07 26 09 FFFFFFC2 FFFFFF80 FFFFFF84 00
   27 01 03 74 70 65 15 01 28 0E 02 08 29 09 02 2A
   02 01 06 4E 6F 54 79 70 65 08 06 2C 09 FFFFFFA0 FFFFFF80 04
   28 01 04 74 70 65 20 08 08 2E 09 FFFFFF84 FFFFFF80 FFFFFF80 FFFFFF84 22
   2F 01 08 74 6F 53 74 72 69 6E 67 14 01 30 10 02
   31 36 0D 01 32 0A 02 33 34 01 04 6C 61 6E 67 0A
   01 35 01 04 6A 61 76 61 09 02 37 32 02 06 53 74
   72 69 6E 67 08 08 39 09 FFFFFF84 FFFFFF80 FFFFFF80 FFFFFF84 20 3A 01 0D
   70 72 6F 64 75 63 74 50 72 65 66 69 78 15 01 30
   08 08 3C 09 FFFFFF84 FFFFFF80 FFFFFF80 FFFFFF84 20 3D 01 0C 70 72 6F 64
   75 63 74 41 72 69 74 79 15 01 3E 10 02 10 3F 09
   02 40 04 02 03 49 6E 74 08 08 42 09 FFFFFF84 FFFFFF80 FFFFFF80 FFFFFF84
   20 43 01 0E 70 72 6F 64 75 63 74 45 6C 65 6D 65
   6E 74 14 02 44 47 10 02 10 45 09 02 46 04 02 03
   41 6E 79 08 07 48 41 FFFFFF81 FFFFFF80 FFFFFFC0 00 3E 01 03 78 24
   31 08 08 4A 09 FFFFFF84 FFFFFF80 FFFFFF80 FFFFFF84 20 4B 01 08 63 61 6E
   45 71 75 61 6C 14 02 4C 4F 10 02 10 4D 09 02 4E
   04 02 07 42 6F 6F 6C 65 61 6E 08 07 48 49 FFFFFF81 FFFFFF80
   FFFFFFC0 00 44 08 08 51 09 FFFFFF84 FFFFFF80 FFFFFF80 FFFFFF84 08 52 01 0B 72
   65 61 64 52 65 73 6F 6C 76 65 14 01 53 10 02 31
   54 09 02 55 32 02 06 4F 62 6A 65 63 74 28 02 09
   57 10 02 10 58 09 02 59 04 02 0C 73 65 72 69 61
   6C 69 7A 61 62 6C 65 
  minor version: 0
  major version: 49
  Constant pool:
Asciz	SourceFile;
Asciz	Symbol.scala;
Asciz	productElements;
Asciz	()Lscala/collection/Iterator;;
Asciz	Code;
Asciz	scala/reflect/NoSymbol$;
class	scala/reflect/NoSymbol$
Asciz	MODULE$;
Asciz	Lscala/reflect/NoSymbol$;;
NameAndType	MODULE$:Lscala/reflect/NoSymbol$;
Field	scala/reflect/NoSymbol$.MODULE$:Lscala/reflect/NoSymbol$;
NameAndType	productElements:()Lscala/collection/Iterator;
Method	scala/reflect/NoSymbol$.productElements:()Lscala/collection/Iterator;
Asciz	Deprecated;
Asciz	productIterator;
NameAndType	productIterator:()Lscala/collection/Iterator;
Method	scala/reflect/NoSymbol$.productIterator:()Lscala/collection/Iterator;
Asciz	canEqual;
Asciz	(Ljava/lang/Object;)Z;
NameAndType	canEqual:(Ljava/lang/Object;)Z
Method	scala/reflect/NoSymbol$.canEqual:(Ljava/lang/Object;)Z
Asciz	productElement;
Asciz	(I)Ljava/lang/Object;;
NameAndType	productElement:(I)Ljava/lang/Object;
Method	scala/reflect/NoSymbol$.productElement:(I)Ljava/lang/Object;
Asciz	productArity;
Asciz	()I;
NameAndType	productArity:()I
Method	scala/reflect/NoSymbol$.productArity:()I
Asciz	productPrefix;
Asciz	()Ljava/lang/String;;
NameAndType	productPrefix:()Ljava/lang/String;
Method	scala/reflect/NoSymbol$.productPrefix:()Ljava/lang/String;
Asciz	tpe;
Asciz	()Lscala/reflect/NoType$;;
NameAndType	tpe:()Lscala/reflect/NoType$;
Method	scala/reflect/NoSymbol$.tpe:()Lscala/reflect/NoType$;
Asciz	name;
Asciz	()Lscala/runtime/Null$;;
NameAndType	name:()Lscala/runtime/Null$;
Method	scala/reflect/NoSymbol$.name:()Lscala/runtime/Null$;
Asciz	owner;
NameAndType	owner:()Lscala/runtime/Null$;
Method	scala/reflect/NoSymbol$.owner:()Lscala/runtime/Null$;
Asciz	ScalaSig;
Asciz	scala/reflect/NoSymbol;
class	scala/reflect/NoSymbol
Asciz	java/lang/Object;
class	java/lang/Object

{
public static final scala.collection.Iterator productElements();
  Signature: ()Lscala/collection/Iterator;
  Code:
   Stack=1, Locals=0, Args_size=0
	getstatic	Field scala/reflect/NoSymbol$.MODULE$:Lscala/reflect/NoSymbol$;
	invokevirtual	Method scala/reflect/NoSymbol$.productElements:()Lscala/collection/Iterator;
	areturn
  Labels:
  Deprecated: true

public static final scala.collection.Iterator productIterator();
  Signature: ()Lscala/collection/Iterator;
  Code:
   Stack=1, Locals=0, Args_size=0
	getstatic	Field scala/reflect/NoSymbol$.MODULE$:Lscala/reflect/NoSymbol$;
	invokevirtual	Method scala/reflect/NoSymbol$.productIterator:()Lscala/collection/Iterator;
	areturn
  Labels:

public static final boolean canEqual(java.lang.Object);
  Signature: (Ljava/lang/Object;)Z
  Code:
   Stack=2, Locals=1, Args_size=1
	getstatic	Field scala/reflect/NoSymbol$.MODULE$:Lscala/reflect/NoSymbol$;
	aload_0
	invokevirtual	Method scala/reflect/NoSymbol$.canEqual:(Ljava/lang/Object;)Z
	ireturn
  Labels:

public static final java.lang.Object productElement(int);
  Signature: (I)Ljava/lang/Object;
  Code:
   Stack=2, Locals=1, Args_size=1
	getstatic	Field scala/reflect/NoSymbol$.MODULE$:Lscala/reflect/NoSymbol$;
	iload_0
	invokevirtual	Method scala/reflect/NoSymbol$.productElement:(I)Ljava/lang/Object;
	areturn
  Labels:

public static final int productArity();
  Signature: ()I
  Code:
   Stack=1, Locals=0, Args_size=0
	getstatic	Field scala/reflect/NoSymbol$.MODULE$:Lscala/reflect/NoSymbol$;
	invokevirtual	Method scala/reflect/NoSymbol$.productArity:()I
	ireturn
  Labels:

public static final java.lang.String productPrefix();
  Signature: ()Ljava/lang/String;
  Code:
   Stack=1, Locals=0, Args_size=0
	getstatic	Field scala/reflect/NoSymbol$.MODULE$:Lscala/reflect/NoSymbol$;
	invokevirtual	Method scala/reflect/NoSymbol$.productPrefix:()Ljava/lang/String;
	areturn
  Labels:

public static final scala.reflect.NoType$ tpe();
  Signature: ()Lscala/reflect/NoType$;
  Code:
   Stack=1, Locals=0, Args_size=0
	getstatic	Field scala/reflect/NoSymbol$.MODULE$:Lscala/reflect/NoSymbol$;
	invokevirtual	Method scala/reflect/NoSymbol$.tpe:()Lscala/reflect/NoType$;
	areturn
  Labels:

public static final scala.runtime.Null$ name();
  Signature: ()Lscala/runtime/Null$;
  Code:
   Stack=1, Locals=0, Args_size=0
	getstatic	Field scala/reflect/NoSymbol$.MODULE$:Lscala/reflect/NoSymbol$;
	invokevirtual	Method scala/reflect/NoSymbol$.name:()Lscala/runtime/Null$;
	areturn
  Labels:

public static final scala.runtime.Null$ owner();
  Signature: ()Lscala/runtime/Null$;
  Code:
   Stack=1, Locals=0, Args_size=0
	getstatic	Field scala/reflect/NoSymbol$.MODULE$:Lscala/reflect/NoSymbol$;
	invokevirtual	Method scala/reflect/NoSymbol$.owner:()Lscala/runtime/Null$;
	areturn
  Labels:

}

