Compiled from "Tree.scala"
public class scala.reflect.Template extends scala.reflect.Tree implements scala.ScalaObject,scala.Product,java.io.Serializable
  SourceFile: "Tree.scala"
  ScalaSig: length = 0x3FC
   05 00 FFFFFF81 16 06 08 01 02 FFFFFF84 FFFFFF80 FFFFFF80 FFFFFF80 40 07 02 08
   54 65 6D 70 6C 61 74 65 0A 02 03 04 01 07 72 65
   66 6C 65 63 74 0A 01 05 01 05 73 63 61 6C 61 03
   00 13 04 00 08 0C 10 10 02 09 0A 0D 01 02 09 02
   0B 02 02 04 54 72 65 65 10 02 0D 0E 0D 01 04 09
   02 0F 04 02 0B 53 63 61 6C 61 4F 62 6A 65 63 74
   10 02 0D 11 09 02 12 04 02 07 50 72 6F 64 75 63
   74 08 08 14 00 FFFFFF82 FFFFFFCA FFFFFF80 FFFFFF84 00 15 01 07 70 61 72
   65 6E 74 73 15 01 16 10 03 17 1C 1E 0D 01 18 0A
   02 19 1A 01 09 69 6D 6D 75 74 61 62 6C 65 0A 02
   1B 04 01 0A 63 6F 6C 6C 65 63 74 69 6F 6E 09 02
   1D 18 02 04 4C 69 73 74 10 02 09 1F 09 02 20 02
   02 04 54 79 70 65 08 08 22 00 FFFFFF82 FFFFFF88 FFFFFFA0 FFFFFF80 04 16
   01 08 70 61 72 65 6E 74 73 20 08 08 24 00 FFFFFF82 FFFFFFCA
   FFFFFF80 FFFFFF84 00 25 01 04 62 6F 64 79 15 01 26 10 03 17
   1C 08 08 08 28 00 FFFFFF82 FFFFFF88 FFFFFFA0 FFFFFF80 04 26 01 05 62 6F
   64 79 20 08 05 2A 00 FFFFFF84 00 2B 01 06 3C 69 6E 69
   74 3E 14 03 2C 2D 2E 10 02 09 00 08 05 14 29 FFFFFFC0
   00 16 08 05 24 29 FFFFFFC0 00 26 08 07 30 00 FFFFFF81 FFFFFF80 FFFFFF84
   00 31 01 04 63 6F 70 79 14 03 2C 32 40 08 08 33
   14 2F FFFFFF90 FFFFFF80 FFFFFFC0 00 16 08 07 34 00 FFFFFF91 FFFFFF80 FFFFFF84 00 35
   01 0E 63 6F 70 79 24 64 65 66 61 75 6C 74 24 31
   15 01 36 2A 02 16 37 2B 01 38 10 02 39 3E 0D 01
   3A 0A 02 3B 3C 01 09 75 6E 63 68 65 63 6B 65 64
   0A 02 3D 04 01 0A 61 6E 6E 6F 74 61 74 69 6F 6E
   09 02 3F 3A 02 11 75 6E 63 68 65 63 6B 65 64 56
   61 72 69 61 6E 63 65 08 08 41 24 2F FFFFFF90 FFFFFF80 FFFFFFC0 00
   26 08 07 42 00 FFFFFF91 FFFFFF80 FFFFFF84 00 43 01 0E 63 6F 70 79
   24 64 65 66 61 75 6C 74 24 32 15 01 44 2A 02 26
   37 08 08 46 00 FFFFFF84 FFFFFF80 FFFFFF80 FFFFFF84 20 47 01 08 68 61 73
   68 43 6F 64 65 14 01 48 10 02 0D 49 09 02 4A 04
   02 03 49 6E 74 08 08 4C 00 FFFFFF84 FFFFFF80 FFFFFF80 FFFFFF84 20 4D 01
   08 74 6F 53 74 72 69 6E 67 14 01 4E 10 02 4F 52
   0E 02 0D 50 09 02 51 04 01 06 50 72 65 64 65 66
   09 02 53 54 02 06 53 74 72 69 6E 67 0A 02 51 04
   08 08 56 00 FFFFFF84 FFFFFF80 FFFFFF80 FFFFFF84 20 57 01 06 65 71 75 61
   6C 73 14 02 58 5B 10 02 0D 59 09 02 5A 04 02 07
   42 6F 6F 6C 65 61 6E 08 07 5C 55 FFFFFF81 FFFFFF80 FFFFFFC0 00 5D
   01 03 78 24 31 10 02 0D 5E 09 02 5F 04 02 03 41
   6E 79 08 08 61 00 FFFFFF84 FFFFFF80 FFFFFF80 FFFFFF84 20 62 01 0D 70 72
   6F 64 75 63 74 50 72 65 66 69 78 15 01 63 10 02
   64 69 0D 01 65 0A 02 66 67 01 04 6C 61 6E 67 0A
   01 68 01 04 6A 61 76 61 09 02 53 65 08 08 6B 00
   FFFFFF84 FFFFFF80 FFFFFF80 FFFFFF84 20 6C 01 0C 70 72 6F 64 75 63 74 41
   72 69 74 79 15 01 48 08 08 6E 00 FFFFFF84 FFFFFF80 FFFFFF80 FFFFFF84 20
   6F 01 0E 70 72 6F 64 75 63 74 45 6C 65 6D 65 6E
   74 14 02 5D 70 08 07 5C 6D FFFFFF81 FFFFFF80 FFFFFFC0 00 48 08 08
   72 00 FFFFFF84 FFFFFF80 FFFFFF80 FFFFFF84 20 73 01 08 63 61 6E 45 71 75
   61 6C 14 02 58 74 08 07 5C 71 FFFFFF81 FFFFFF80 FFFFFFC0 00 5D 28
   02 00 76 10 02 0D 77 09 02 78 04 02 0C 73 65 72
   69 61 6C 69 7A 61 62 6C 65 07 07 7A 02 FFFFFF81 FFFFFF80 FFFFFF88
   02 7B 01 08 54 65 6D 70 6C 61 74 65 10 02 09 7C
   06 08 01 02 FFFFFF84 FFFFFF81 FFFFFF80 FFFFFF88 02 7D 13 05 7C 7E FFFFFF81 01
   0C 10 02 64 7F 09 03 FFFFFF81 00 65 02 06 4F 62 6A 65
   63 74 10 06 0D FFFFFF81 02 16 26 2C 09 03 FFFFFF81 03 04 02
   09 46 75 6E 63 74 69 6F 6E 32 08 06 2A 7C FFFFFF84 00
   FFFFFF81 05 14 01 7B 08 09 FFFFFF81 07 7C FFFFFF81 FFFFFF80 FFFFFF84 40 FFFFFF81 08
   01 05 61 70 70 6C 79 14 05 2C FFFFFF81 09 FFFFFF81 0A 08 06
   14 FFFFFF81 06 FFFFFFC0 00 16 08 06 24 FFFFFF81 06 FFFFFFC0 00 26 08 09
   FFFFFF81 0C 7C FFFFFF81 FFFFFF80 FFFFFF84 40 FFFFFF81 0D 01 07 75 6E 61 70 70
   6C 79 14 04 FFFFFF81 0E FFFFFF81 14 10 05 0D FFFFFF81 0F FFFFFF81 11 09
   03 FFFFFF81 10 04 02 04 53 6F 6D 65 10 05 0D FFFFFF81 12 16
   26 09 03 FFFFFF81 13 04 02 06 54 75 70 6C 65 32 08 07
   FFFFFF81 15 FFFFFF81 0B FFFFFFC0 00 2C 01 03 78 24 30 
  minor version: 0
  major version: 49
  Constant pool:
const #1 = Asciz	SourceFile;
const #2 = Asciz	Tree.scala;
const #3 = Asciz	tuple;
const #4 = Asciz	()Lscala/Function1;;
const #5 = Asciz	Code;
const #6 = Asciz	scala/reflect/Template$;
const #7 = class	#6;	//  scala/reflect/Template$
const #8 = Asciz	MODULE$;
const #9 = Asciz	Lscala/reflect/Template$;;
const #10 = NameAndType	#8:#9;//  MODULE$:Lscala/reflect/Template$;
const #11 = Field	#7.#10;	//  scala/reflect/Template$.MODULE$:Lscala/reflect/Template$;
const #12 = NameAndType	#3:#4;//  tuple:()Lscala/Function1;
const #13 = Method	#7.#12;	//  scala/reflect/Template$.tuple:()Lscala/Function1;
const #14 = Asciz	curry;
const #15 = NameAndType	#14:#4;//  curry:()Lscala/Function1;
const #16 = Method	#7.#15;	//  scala/reflect/Template$.curry:()Lscala/Function1;
const #17 = Asciz	body;
const #18 = Asciz	Lscala/collection/immutable/List;;
const #19 = Asciz	Lscala/collection/immutable/List<Lscala/reflect/Tree;>;;
const #20 = Asciz	Signature;
const #21 = Asciz	parents;
const #22 = Asciz	Lscala/collection/immutable/List<Lscala/reflect/Type;>;;
const #23 = Asciz	<init>;
const #24 = Asciz	(Lscala/collection/immutable/List;Lscala/collection/immutable/List;)V;
const #25 = Asciz	LineNumberTable;
const #26 = Asciz	scala/reflect/Template;
const #27 = class	#26;	//  scala/reflect/Template
const #28 = NameAndType	#21:#18;//  parents:Lscala/collection/immutable/List;
const #29 = Field	#27.#28;	//  scala/reflect/Template.parents:Lscala/collection/immutable/List;
const #30 = NameAndType	#17:#18;//  body:Lscala/collection/immutable/List;
const #31 = Field	#27.#30;	//  scala/reflect/Template.body:Lscala/collection/immutable/List;
const #32 = Asciz	scala/reflect/Tree;
const #33 = class	#32;	//  scala/reflect/Tree
const #34 = Asciz	()V;
const #35 = NameAndType	#23:#34;//  "<init>":()V
const #36 = Method	#33.#35;	//  scala/reflect/Tree."<init>":()V
const #37 = Asciz	scala/Product$class;
const #38 = class	#37;	//  scala/Product$class
const #39 = Asciz	$init$;
const #40 = Asciz	(Lscala/Product;)V;
const #41 = NameAndType	#39:#40;//  $init$:(Lscala/Product;)V
const #42 = Method	#38.#41;	//  scala/Product$class.$init$:(Lscala/Product;)V
const #43 = Asciz	this;
const #44 = Asciz	Lscala/reflect/Template;;
const #45 = Asciz	LocalVariableTable;
const #46 = Asciz	(Lscala/collection/immutable/List<Lscala/reflect/Type;>;Lscala/collection/immutable/List<Lscala/reflect/Tree;>;)V;
const #47 = Asciz	gd18$1;
const #48 = Asciz	(Lscala/collection/immutable/List;Lscala/collection/immutable/List;)Z;
const #49 = Asciz	()Lscala/collection/immutable/List;;
const #50 = NameAndType	#21:#49;//  parents:()Lscala/collection/immutable/List;
const #51 = Method	#27.#50;	//  scala/reflect/Template.parents:()Lscala/collection/immutable/List;
const #52 = Asciz	java/lang/Object;
const #53 = class	#52;	//  java/lang/Object
const #54 = Asciz	equals;
const #55 = Asciz	(Ljava/lang/Object;)Z;
const #56 = NameAndType	#54:#55;//  equals:(Ljava/lang/Object;)Z
const #57 = Method	#53.#56;	//  java/lang/Object.equals:(Ljava/lang/Object;)Z
const #58 = NameAndType	#17:#49;//  body:()Lscala/collection/immutable/List;
const #59 = Method	#27.#58;	//  scala/reflect/Template.body:()Lscala/collection/immutable/List;
const #60 = Asciz	canEqual;
const #61 = Asciz	productElement;
const #62 = Asciz	(I)Ljava/lang/Object;;
const #63 = Asciz	java/lang/IndexOutOfBoundsException;
const #64 = class	#63;	//  java/lang/IndexOutOfBoundsException
const #65 = Asciz	scala/runtime/BoxesRunTime;
const #66 = class	#65;	//  scala/runtime/BoxesRunTime
const #67 = Asciz	boxToInteger;
const #68 = Asciz	(I)Ljava/lang/Integer;;
const #69 = NameAndType	#67:#68;//  boxToInteger:(I)Ljava/lang/Integer;
const #70 = Method	#66.#69;	//  scala/runtime/BoxesRunTime.boxToInteger:(I)Ljava/lang/Integer;
const #71 = Asciz	toString;
const #72 = Asciz	()Ljava/lang/String;;
const #73 = NameAndType	#71:#72;//  toString:()Ljava/lang/String;
const #74 = Method	#53.#73;	//  java/lang/Object.toString:()Ljava/lang/String;
const #75 = Asciz	(Ljava/lang/String;)V;
const #76 = NameAndType	#23:#75;//  "<init>":(Ljava/lang/String;)V
const #77 = Method	#64.#76;	//  java/lang/IndexOutOfBoundsException."<init>":(Ljava/lang/String;)V
const #78 = Asciz	scala/MatchError;
const #79 = class	#78;	//  scala/MatchError
const #80 = Method	#79.#76;	//  scala/MatchError."<init>":(Ljava/lang/String;)V
const #81 = Asciz	productArity;
const #82 = Asciz	()I;
const #83 = Asciz	productPrefix;
const #84 = Asciz	Template;
const #85 = String	#84;	//  Template
const #86 = NameAndType	#47:#48;//  gd18$1:(Lscala/collection/immutable/List;Lscala/collection/immutable/List;)Z
const #87 = Method	#27.#86;	//  scala/reflect/Template.gd18$1:(Lscala/collection/immutable/List;Lscala/collection/immutable/List;)Z
const #88 = Asciz	scala/Equals;
const #89 = class	#88;	//  scala/Equals
const #90 = NameAndType	#60:#55;//  canEqual:(Ljava/lang/Object;)Z
const #91 = InterfaceMethod	#89.#90;	//  scala/Equals.canEqual:(Ljava/lang/Object;)Z
const #92 = Asciz	temp85;
const #93 = Asciz	temp86;
const #94 = Asciz	temp87;
const #95 = Asciz	scala/runtime/ScalaRunTime$;
const #96 = class	#95;	//  scala/runtime/ScalaRunTime$
const #97 = Asciz	Lscala/runtime/ScalaRunTime$;;
const #98 = NameAndType	#8:#97;//  MODULE$:Lscala/runtime/ScalaRunTime$;
const #99 = Field	#96.#98;	//  scala/runtime/ScalaRunTime$.MODULE$:Lscala/runtime/ScalaRunTime$;
const #100 = Asciz	_toString;
const #101 = Asciz	(Lscala/Product;)Ljava/lang/String;;
const #102 = NameAndType	#100:#101;//  _toString:(Lscala/Product;)Ljava/lang/String;
const #103 = Method	#96.#102;	//  scala/runtime/ScalaRunTime$._toString:(Lscala/Product;)Ljava/lang/String;
const #104 = Asciz	hashCode;
const #105 = Asciz	_hashCode;
const #106 = Asciz	(Lscala/Product;)I;
const #107 = NameAndType	#105:#106;//  _hashCode:(Lscala/Product;)I
const #108 = Method	#96.#107;	//  scala/runtime/ScalaRunTime$._hashCode:(Lscala/Product;)I
const #109 = Asciz	copy;
const #110 = Asciz	(Lscala/collection/immutable/List;Lscala/collection/immutable/List;)Lscala/reflect/Template;;
const #111 = NameAndType	#23:#24;//  "<init>":(Lscala/collection/immutable/List;Lscala/collection/immutable/List;)V
const #112 = Method	#27.#111;	//  scala/reflect/Template."<init>":(Lscala/collection/immutable/List;Lscala/collection/immutable/List;)V
const #113 = Asciz	()Lscala/collection/immutable/List<Lscala/reflect/Tree;>;;
const #114 = Asciz	()Lscala/collection/immutable/List<Lscala/reflect/Type;>;;
const #115 = Asciz	copy$default$1;
const #116 = Asciz	copy$default$2;
const #117 = Asciz	productElements;
const #118 = Asciz	()Lscala/collection/Iterator;;
const #119 = Asciz	(Lscala/Product;)Lscala/collection/Iterator;;
const #120 = NameAndType	#117:#119;//  productElements:(Lscala/Product;)Lscala/collection/Iterator;
const #121 = Method	#38.#120;	//  scala/Product$class.productElements:(Lscala/Product;)Lscala/collection/Iterator;
const #122 = Asciz	productIterator;
const #123 = NameAndType	#122:#119;//  productIterator:(Lscala/Product;)Lscala/collection/Iterator;
const #124 = Method	#38.#123;	//  scala/Product$class.productIterator:(Lscala/Product;)Lscala/collection/Iterator;
const #125 = Asciz	ScalaSig;
const #126 = Asciz	scala/ScalaObject;
const #127 = class	#126;	//  scala/ScalaObject
const #128 = Asciz	scala/Product;
const #129 = class	#128;	//  scala/Product
const #130 = Asciz	java/io/Serializable;
const #131 = class	#130;	//  java/io/Serializable

{
public static final scala.Function1 tuple();
  Code:
   Stack=1, Locals=0, Args_size=0
   0:	getstatic	#11; //Field scala/reflect/Template$.MODULE$:Lscala/reflect/Template$;
   3:	invokevirtual	#13; //Method scala/reflect/Template$.tuple:()Lscala/Function1;
   6:	areturn

public static final scala.Function1 curry();
  Code:
   Stack=1, Locals=0, Args_size=0
   0:	getstatic	#11; //Field scala/reflect/Template$.MODULE$:Lscala/reflect/Template$;
   3:	invokevirtual	#16; //Method scala/reflect/Template$.curry:()Lscala/Function1;
   6:	areturn

public scala.reflect.Template(scala.collection.immutable.List, scala.collection.immutable.List);
  Code:
   Stack=2, Locals=3, Args_size=3
   0:	aload_0
   1:	aload_1
   2:	putfield	#29; //Field parents:Lscala/collection/immutable/List;
   5:	aload_0
   6:	aload_2
   7:	putfield	#31; //Field body:Lscala/collection/immutable/List;
   10:	aload_0
   11:	invokespecial	#36; //Method scala/reflect/Tree."<init>":()V
   14:	aload_0
   15:	invokestatic	#42; //Method scala/Product$class.$init$:(Lscala/Product;)V
   18:	return
  LineNumberTable: 
   line 56: 0

  LocalVariableTable: 
   Start  Length  Slot  Name   Signature
   0      19      0    this       Lscala/reflect/Template;
   0      19      1    parents       Lscala/collection/immutable/List;
   0      19      2    body       Lscala/collection/immutable/List;

  Signature: length = 0x2
   00 2E 

public boolean canEqual(java.lang.Object);
  Code:
   Stack=1, Locals=2, Args_size=2
   0:	aload_1
   1:	instanceof	#27; //class scala/reflect/Template
   4:	ireturn
  LineNumberTable: 
   line 56: 0


public java.lang.Object productElement(int);
  Code:
   Stack=3, Locals=2, Args_size=2
   0:	iload_1
   1:	tableswitch{ //0 to 1
		0: 84;
		1: 58;
		default: 24 }
   24:	iconst_1
   25:	ifeq	43
   28:	new	#64; //class java/lang/IndexOutOfBoundsException
   31:	dup
   32:	iload_1
   33:	invokestatic	#70; //Method scala/runtime/BoxesRunTime.boxToInteger:(I)Ljava/lang/Integer;
   36:	invokevirtual	#74; //Method java/lang/Object.toString:()Ljava/lang/String;
   39:	invokespecial	#77; //Method java/lang/IndexOutOfBoundsException."<init>":(Ljava/lang/String;)V
   42:	athrow
   43:	new	#79; //class scala/MatchError
   46:	dup
   47:	iload_1
   48:	invokestatic	#70; //Method scala/runtime/BoxesRunTime.boxToInteger:(I)Ljava/lang/Integer;
   51:	invokevirtual	#74; //Method java/lang/Object.toString:()Ljava/lang/String;
   54:	invokespecial	#80; //Method scala/MatchError."<init>":(Ljava/lang/String;)V
   57:	athrow
   58:	iconst_1
   59:	ifeq	69
   62:	aload_0
   63:	invokevirtual	#59; //Method body:()Lscala/collection/immutable/List;
   66:	goto	92
   69:	new	#79; //class scala/MatchError
   72:	dup
   73:	iload_1
   74:	invokestatic	#70; //Method scala/runtime/BoxesRunTime.boxToInteger:(I)Ljava/lang/Integer;
   77:	invokevirtual	#74; //Method java/lang/Object.toString:()Ljava/lang/String;
   80:	invokespecial	#80; //Method scala/MatchError."<init>":(Ljava/lang/String;)V
   83:	athrow
   84:	iconst_1
   85:	ifeq	93
   88:	aload_0
   89:	invokevirtual	#51; //Method parents:()Lscala/collection/immutable/List;
   92:	areturn
   93:	new	#79; //class scala/MatchError
   96:	dup
   97:	iload_1
   98:	invokestatic	#70; //Method scala/runtime/BoxesRunTime.boxToInteger:(I)Ljava/lang/Integer;
   101:	invokevirtual	#74; //Method java/lang/Object.toString:()Ljava/lang/String;
   104:	invokespecial	#80; //Method scala/MatchError."<init>":(Ljava/lang/String;)V
   107:	athrow
  LineNumberTable: 
   line 56: 0
   line 21: 24
   line 56: 28
   line 21: 58
   line 56: 62
   line 21: 84
   line 56: 88


public int productArity();
  Code:
   Stack=1, Locals=1, Args_size=1
   0:	iconst_2
   1:	ireturn
  LineNumberTable: 
   line 56: 0


public java.lang.String productPrefix();
  Code:
   Stack=1, Locals=1, Args_size=1
   0:	ldc	#85; //String Template
   2:	areturn
  LineNumberTable: 
   line 56: 0


public boolean equals(java.lang.Object);
  Code:
   Stack=3, Locals=5, Args_size=2
   0:	aload_0
   1:	aload_1
   2:	if_acmpeq	79
   5:	aload_1
   6:	instanceof	#27; //class scala/reflect/Template
   9:	ifeq	71
   12:	aload_1
   13:	checkcast	#27; //class scala/reflect/Template
   16:	astore_2
   17:	aload_2
   18:	invokevirtual	#51; //Method parents:()Lscala/collection/immutable/List;
   21:	astore_3
   22:	aload_2
   23:	invokevirtual	#59; //Method body:()Lscala/collection/immutable/List;
   26:	astore	4
   28:	aload_0
   29:	aload_3
   30:	aload	4
   32:	invokespecial	#87; //Method gd18$1:(Lscala/collection/immutable/List;Lscala/collection/immutable/List;)Z
   35:	ifeq	51
   38:	aload_1
   39:	checkcast	#27; //class scala/reflect/Template
   42:	aload_0
   43:	invokeinterface	#91,  2; //InterfaceMethod scala/Equals.canEqual:(Ljava/lang/Object;)Z
   48:	goto	76
   51:	iconst_1
   52:	ifeq	59
   55:	iconst_0
   56:	goto	76
   59:	new	#79; //class scala/MatchError
   62:	dup
   63:	aload_1
   64:	invokevirtual	#74; //Method java/lang/Object.toString:()Ljava/lang/String;
   67:	invokespecial	#80; //Method scala/MatchError."<init>":(Ljava/lang/String;)V
   70:	athrow
   71:	iconst_1
   72:	ifeq	85
   75:	iconst_0
   76:	ifeq	83
   79:	iconst_1
   80:	goto	84
   83:	iconst_0
   84:	ireturn
   85:	new	#79; //class scala/MatchError
   88:	dup
   89:	aload_1
   90:	invokevirtual	#74; //Method java/lang/Object.toString:()Ljava/lang/String;
   93:	invokespecial	#80; //Method scala/MatchError."<init>":(Ljava/lang/String;)V
   96:	athrow
  LineNumberTable: 
   line 56: 0
   line 21: 51
   line 56: 59
   line 21: 71
   line 56: 76

  LocalVariableTable: 
   Start  Length  Slot  Name   Signature
   0      97      0    this       Lscala/reflect/Template;
   17      54      2    temp85       Lscala/reflect/Template;
   22      49      3    temp86       Lscala/collection/immutable/List;
   28      43      4    temp87       Lscala/collection/immutable/List;


public java.lang.String toString();
  Code:
   Stack=2, Locals=1, Args_size=1
   0:	getstatic	#99; //Field scala/runtime/ScalaRunTime$.MODULE$:Lscala/runtime/ScalaRunTime$;
   3:	aload_0
   4:	invokevirtual	#103; //Method scala/runtime/ScalaRunTime$._toString:(Lscala/Product;)Ljava/lang/String;
   7:	areturn
  LineNumberTable: 
   line 56: 0


public int hashCode();
  Code:
   Stack=2, Locals=1, Args_size=1
   0:	getstatic	#99; //Field scala/runtime/ScalaRunTime$.MODULE$:Lscala/runtime/ScalaRunTime$;
   3:	aload_0
   4:	invokevirtual	#108; //Method scala/runtime/ScalaRunTime$._hashCode:(Lscala/Product;)I
   7:	ireturn
  LineNumberTable: 
   line 56: 0


public scala.reflect.Template copy(scala.collection.immutable.List, scala.collection.immutable.List);
  Code:
   Stack=4, Locals=3, Args_size=3
   0:	new	#27; //class scala/reflect/Template
   3:	dup
   4:	aload_1
   5:	aload_2
   6:	invokespecial	#112; //Method "<init>":(Lscala/collection/immutable/List;Lscala/collection/immutable/List;)V
   9:	areturn
  LineNumberTable: 
   line 56: 0

  LocalVariableTable: 
   Start  Length  Slot  Name   Signature
   0      10      0    this       Lscala/reflect/Template;
   0      10      1    parents       Lscala/collection/immutable/List;
   0      10      2    body       Lscala/collection/immutable/List;


public scala.collection.immutable.List body();
  Code:
   Stack=1, Locals=1, Args_size=1
   0:	aload_0
   1:	getfield	#31; //Field body:Lscala/collection/immutable/List;
   4:	areturn
  LineNumberTable: 
   line 56: 0

  Signature: length = 0x2
   00 71 

public scala.collection.immutable.List parents();
  Code:
   Stack=1, Locals=1, Args_size=1
   0:	aload_0
   1:	getfield	#29; //Field parents:Lscala/collection/immutable/List;
   4:	areturn
  LineNumberTable: 
   line 56: 0

  Signature: length = 0x2
   00 72 

public scala.collection.immutable.List copy$default$1();
  Code:
   Stack=1, Locals=1, Args_size=1
   0:	aload_0
   1:	invokevirtual	#51; //Method parents:()Lscala/collection/immutable/List;
   4:	areturn
  LineNumberTable: 
   line 56: 0


public scala.collection.immutable.List copy$default$2();
  Code:
   Stack=1, Locals=1, Args_size=1
   0:	aload_0
   1:	invokevirtual	#59; //Method body:()Lscala/collection/immutable/List;
   4:	areturn
  LineNumberTable: 
   line 56: 0


public scala.collection.Iterator productElements();
  Code:
   Stack=1, Locals=1, Args_size=1
   0:	aload_0
   1:	invokestatic	#121; //Method scala/Product$class.productElements:(Lscala/Product;)Lscala/collection/Iterator;
   4:	areturn
  LineNumberTable: 
   line 56: 0


public scala.collection.Iterator productIterator();
  Code:
   Stack=1, Locals=1, Args_size=1
   0:	aload_0
   1:	invokestatic	#124; //Method scala/Product$class.productIterator:(Lscala/Product;)Lscala/collection/Iterator;
   4:	areturn
  LineNumberTable: 
   line 56: 0


}

