Compiled from "Tree.scala"
public class scala.reflect.Template extends scala.reflect.Tree implements scala.ScalaObject,scala.Product,java.io.Serializable
  SourceFile: "Tree.scala"
  ScalaSig: length = 0x3FC
   05 00 FFFFFF81 16 06 08 01 02 FFFFFF84 FFFFFF80 FFFFFF80 FFFFFF80 40 07 02 08
   54 65 6D 70 6C 61 74 65 0A 02 03 04 01 07 72 65
   66 6C 65 63 74 0A 01 05 01 05 73 63 61 6C 61 03
   00 13 04 00 08 0C 10 10 02 09 0A 0D 01 02 09 02
   0B 02 02 04 54 72 65 65 10 02 0D 0E 0D 01 04 09
   02 0F 04 02 0B 53 63 61 6C 61 4F 62 6A 65 63 74
   10 02 0D 11 09 02 12 04 02 07 50 72 6F 64 75 63
   74 08 08 14 00 FFFFFF82 FFFFFFCA FFFFFF80 FFFFFF84 00 15 01 07 70 61 72
   65 6E 74 73 15 01 16 10 03 17 1C 1E 0D 01 18 0A
   02 19 1A 01 09 69 6D 6D 75 74 61 62 6C 65 0A 02
   1B 04 01 0A 63 6F 6C 6C 65 63 74 69 6F 6E 09 02
   1D 18 02 04 4C 69 73 74 10 02 09 1F 09 02 20 02
   02 04 54 79 70 65 08 08 22 00 FFFFFF82 FFFFFF88 FFFFFFA0 FFFFFF80 04 16
   01 08 70 61 72 65 6E 74 73 20 08 08 24 00 FFFFFF82 FFFFFFCA
   FFFFFF80 FFFFFF84 00 25 01 04 62 6F 64 79 15 01 26 10 03 17
   1C 08 08 08 28 00 FFFFFF82 FFFFFF88 FFFFFFA0 FFFFFF80 04 26 01 05 62 6F
   64 79 20 08 05 2A 00 FFFFFF84 00 2B 01 06 3C 69 6E 69
   74 3E 14 03 2C 2D 2E 10 02 09 00 08 05 14 29 FFFFFFC0
   00 16 08 05 24 29 FFFFFFC0 00 26 08 07 30 00 FFFFFF81 FFFFFF80 FFFFFF84
   00 31 01 04 63 6F 70 79 14 03 2C 32 40 08 08 33
   14 2F FFFFFF90 FFFFFF80 FFFFFFC0 00 16 08 07 34 00 FFFFFF91 FFFFFF80 FFFFFF84 00 35
   01 0E 63 6F 70 79 24 64 65 66 61 75 6C 74 24 31
   15 01 36 2A 02 16 37 2B 01 38 10 02 39 3E 0D 01
   3A 0A 02 3B 3C 01 09 75 6E 63 68 65 63 6B 65 64
   0A 02 3D 04 01 0A 61 6E 6E 6F 74 61 74 69 6F 6E
   09 02 3F 3A 02 11 75 6E 63 68 65 63 6B 65 64 56
   61 72 69 61 6E 63 65 08 08 41 24 2F FFFFFF90 FFFFFF80 FFFFFFC0 00
   26 08 07 42 00 FFFFFF91 FFFFFF80 FFFFFF84 00 43 01 0E 63 6F 70 79
   24 64 65 66 61 75 6C 74 24 32 15 01 44 2A 02 26
   37 08 08 46 00 FFFFFF84 FFFFFF80 FFFFFF80 FFFFFF84 20 47 01 08 68 61 73
   68 43 6F 64 65 14 01 48 10 02 0D 49 09 02 4A 04
   02 03 49 6E 74 08 08 4C 00 FFFFFF84 FFFFFF80 FFFFFF80 FFFFFF84 20 4D 01
   08 74 6F 53 74 72 69 6E 67 14 01 4E 10 02 4F 52
   0E 02 0D 50 09 02 51 04 01 06 50 72 65 64 65 66
   09 02 53 54 02 06 53 74 72 69 6E 67 0A 02 51 04
   08 08 56 00 FFFFFF84 FFFFFF80 FFFFFF80 FFFFFF84 20 57 01 06 65 71 75 61
   6C 73 14 02 58 5B 10 02 0D 59 09 02 5A 04 02 07
   42 6F 6F 6C 65 61 6E 08 07 5C 55 FFFFFF81 FFFFFF80 FFFFFFC0 00 5D
   01 03 78 24 31 10 02 0D 5E 09 02 5F 04 02 03 41
   6E 79 08 08 61 00 FFFFFF84 FFFFFF80 FFFFFF80 FFFFFF84 20 62 01 0D 70 72
   6F 64 75 63 74 50 72 65 66 69 78 15 01 63 10 02
   64 69 0D 01 65 0A 02 66 67 01 04 6C 61 6E 67 0A
   01 68 01 04 6A 61 76 61 09 02 53 65 08 08 6B 00
   FFFFFF84 FFFFFF80 FFFFFF80 FFFFFF84 20 6C 01 0C 70 72 6F 64 75 63 74 41
   72 69 74 79 15 01 48 08 08 6E 00 FFFFFF84 FFFFFF80 FFFFFF80 FFFFFF84 20
   6F 01 0E 70 72 6F 64 75 63 74 45 6C 65 6D 65 6E
   74 14 02 5D 70 08 07 5C 6D FFFFFF81 FFFFFF80 FFFFFFC0 00 48 08 08
   72 00 FFFFFF84 FFFFFF80 FFFFFF80 FFFFFF84 20 73 01 08 63 61 6E 45 71 75
   61 6C 14 02 58 74 08 07 5C 71 FFFFFF81 FFFFFF80 FFFFFFC0 00 5D 28
   02 00 76 10 02 0D 77 09 02 78 04 02 0C 73 65 72
   69 61 6C 69 7A 61 62 6C 65 07 07 7A 02 FFFFFF81 FFFFFF80 FFFFFF88
   02 7B 01 08 54 65 6D 70 6C 61 74 65 10 02 09 7C
   06 08 01 02 FFFFFF84 FFFFFF81 FFFFFF80 FFFFFF88 02 7D 13 05 7C 7E FFFFFF81 01
   0C 10 02 64 7F 09 03 FFFFFF81 00 65 02 06 4F 62 6A 65
   63 74 10 06 0D FFFFFF81 02 16 26 2C 09 03 FFFFFF81 03 04 02
   09 46 75 6E 63 74 69 6F 6E 32 08 06 2A 7C FFFFFF84 00
   FFFFFF81 05 14 01 7B 08 09 FFFFFF81 07 7C FFFFFF81 FFFFFF80 FFFFFF84 40 FFFFFF81 08
   01 05 61 70 70 6C 79 14 05 2C FFFFFF81 09 FFFFFF81 0A 08 06
   14 FFFFFF81 06 FFFFFFC0 00 16 08 06 24 FFFFFF81 06 FFFFFFC0 00 26 08 09
   FFFFFF81 0C 7C FFFFFF81 FFFFFF80 FFFFFF84 40 FFFFFF81 0D 01 07 75 6E 61 70 70
   6C 79 14 04 FFFFFF81 0E FFFFFF81 14 10 05 0D FFFFFF81 0F FFFFFF81 11 09
   03 FFFFFF81 10 04 02 04 53 6F 6D 65 10 05 0D FFFFFF81 12 16
   26 09 03 FFFFFF81 13 04 02 06 54 75 70 6C 65 32 08 07
   FFFFFF81 15 FFFFFF81 0B FFFFFFC0 00 2C 01 03 78 24 30 
  minor version: 0
  major version: 49
  Constant pool:
Asciz	SourceFile;
Asciz	Tree.scala;
Asciz	tuple;
Asciz	()Lscala/Function1;;
Asciz	Code;
Asciz	scala/reflect/Template$;
class	scala/reflect/Template$
Asciz	MODULE$;
Asciz	Lscala/reflect/Template$;;
NameAndType	MODULE$:Lscala/reflect/Template$;
Field	scala/reflect/Template$.MODULE$:Lscala/reflect/Template$;
NameAndType	tuple:()Lscala/Function1;
Method	scala/reflect/Template$.tuple:()Lscala/Function1;
Asciz	curry;
NameAndType	curry:()Lscala/Function1;
Method	scala/reflect/Template$.curry:()Lscala/Function1;
Asciz	body;
Asciz	Lscala/collection/immutable/List;;
Asciz	Lscala/collection/immutable/List<Lscala/reflect/Tree;>;;
Asciz	Signature;
Asciz	parents;
Asciz	Lscala/collection/immutable/List<Lscala/reflect/Type;>;;
Asciz	<init>;
Asciz	(Lscala/collection/immutable/List;Lscala/collection/immutable/List;)V;
Asciz	LineNumberTable;
Asciz	scala/reflect/Template;
class	scala/reflect/Template
NameAndType	parents:Lscala/collection/immutable/List;
Field	scala/reflect/Template.parents:Lscala/collection/immutable/List;
NameAndType	body:Lscala/collection/immutable/List;
Field	scala/reflect/Template.body:Lscala/collection/immutable/List;
Asciz	scala/reflect/Tree;
class	scala/reflect/Tree
Asciz	()V;
NameAndType	"<init>":()V
Method	scala/reflect/Tree."<init>":()V
Asciz	scala/Product$class;
class	scala/Product$class
Asciz	$init$;
Asciz	(Lscala/Product;)V;
NameAndType	$init$:(Lscala/Product;)V
Method	scala/Product$class.$init$:(Lscala/Product;)V
Asciz	this;
Asciz	Lscala/reflect/Template;;
Asciz	LocalVariableTable;
Asciz	(Lscala/collection/immutable/List<Lscala/reflect/Type;>;Lscala/collection/immutable/List<Lscala/reflect/Tree;>;)V;
Asciz	gd18$1;
Asciz	(Lscala/collection/immutable/List;Lscala/collection/immutable/List;)Z;
Asciz	()Lscala/collection/immutable/List;;
NameAndType	parents:()Lscala/collection/immutable/List;
Method	scala/reflect/Template.parents:()Lscala/collection/immutable/List;
Asciz	java/lang/Object;
class	java/lang/Object
Asciz	equals;
Asciz	(Ljava/lang/Object;)Z;
NameAndType	equals:(Ljava/lang/Object;)Z
Method	java/lang/Object.equals:(Ljava/lang/Object;)Z
NameAndType	body:()Lscala/collection/immutable/List;
Method	scala/reflect/Template.body:()Lscala/collection/immutable/List;
Asciz	canEqual;
Asciz	productElement;
Asciz	(I)Ljava/lang/Object;;
Asciz	java/lang/IndexOutOfBoundsException;
class	java/lang/IndexOutOfBoundsException
Asciz	scala/runtime/BoxesRunTime;
class	scala/runtime/BoxesRunTime
Asciz	boxToInteger;
Asciz	(I)Ljava/lang/Integer;;
NameAndType	boxToInteger:(I)Ljava/lang/Integer;
Method	scala/runtime/BoxesRunTime.boxToInteger:(I)Ljava/lang/Integer;
Asciz	toString;
Asciz	()Ljava/lang/String;;
NameAndType	toString:()Ljava/lang/String;
Method	java/lang/Object.toString:()Ljava/lang/String;
Asciz	(Ljava/lang/String;)V;
NameAndType	"<init>":(Ljava/lang/String;)V
Method	java/lang/IndexOutOfBoundsException."<init>":(Ljava/lang/String;)V
Asciz	scala/MatchError;
class	scala/MatchError
Method	scala/MatchError."<init>":(Ljava/lang/String;)V
Asciz	productArity;
Asciz	()I;
Asciz	productPrefix;
Asciz	Template;
String	Template
NameAndType	gd18$1:(Lscala/collection/immutable/List;Lscala/collection/immutable/List;)Z
Method	scala/reflect/Template.gd18$1:(Lscala/collection/immutable/List;Lscala/collection/immutable/List;)Z
Asciz	scala/Equals;
class	scala/Equals
NameAndType	canEqual:(Ljava/lang/Object;)Z
InterfaceMethod	scala/Equals.canEqual:(Ljava/lang/Object;)Z
Asciz	temp85;
Asciz	temp86;
Asciz	temp87;
Asciz	scala/runtime/ScalaRunTime$;
class	scala/runtime/ScalaRunTime$
Asciz	Lscala/runtime/ScalaRunTime$;;
NameAndType	MODULE$:Lscala/runtime/ScalaRunTime$;
Field	scala/runtime/ScalaRunTime$.MODULE$:Lscala/runtime/ScalaRunTime$;
Asciz	_toString;
Asciz	(Lscala/Product;)Ljava/lang/String;;
NameAndType	_toString:(Lscala/Product;)Ljava/lang/String;
Method	scala/runtime/ScalaRunTime$._toString:(Lscala/Product;)Ljava/lang/String;
Asciz	hashCode;
Asciz	_hashCode;
Asciz	(Lscala/Product;)I;
NameAndType	_hashCode:(Lscala/Product;)I
Method	scala/runtime/ScalaRunTime$._hashCode:(Lscala/Product;)I
Asciz	copy;
Asciz	(Lscala/collection/immutable/List;Lscala/collection/immutable/List;)Lscala/reflect/Template;;
NameAndType	"<init>":(Lscala/collection/immutable/List;Lscala/collection/immutable/List;)V
Method	scala/reflect/Template."<init>":(Lscala/collection/immutable/List;Lscala/collection/immutable/List;)V
Asciz	()Lscala/collection/immutable/List<Lscala/reflect/Tree;>;;
Asciz	()Lscala/collection/immutable/List<Lscala/reflect/Type;>;;
Asciz	copy$default$1;
Asciz	copy$default$2;
Asciz	productElements;
Asciz	()Lscala/collection/Iterator;;
Asciz	(Lscala/Product;)Lscala/collection/Iterator;;
NameAndType	productElements:(Lscala/Product;)Lscala/collection/Iterator;
Method	scala/Product$class.productElements:(Lscala/Product;)Lscala/collection/Iterator;
Asciz	Deprecated;
Asciz	productIterator;
NameAndType	productIterator:(Lscala/Product;)Lscala/collection/Iterator;
Method	scala/Product$class.productIterator:(Lscala/Product;)Lscala/collection/Iterator;
Asciz	ScalaSig;
Asciz	scala/ScalaObject;
class	scala/ScalaObject
Asciz	scala/Product;
class	scala/Product
Asciz	java/io/Serializable;
class	java/io/Serializable

{
private final scala.collection.immutable.List body;
  Signature: Lscala/collection/immutable/List;
  Signature: length = 0x2
   00 13 

private final scala.collection.immutable.List parents;
  Signature: Lscala/collection/immutable/List;
  Signature: length = 0x2
   00 16 

public static final scala.Function1 tuple();
  Signature: ()Lscala/Function1;
  Code:
   Stack=1, Locals=0, Args_size=0
	getstatic	Field scala/reflect/Template$.MODULE$:Lscala/reflect/Template$;
	invokevirtual	Method scala/reflect/Template$.tuple:()Lscala/Function1;
	areturn
  Labels:

public static final scala.Function1 curry();
  Signature: ()Lscala/Function1;
  Code:
   Stack=1, Locals=0, Args_size=0
	getstatic	Field scala/reflect/Template$.MODULE$:Lscala/reflect/Template$;
	invokevirtual	Method scala/reflect/Template$.curry:()Lscala/Function1;
	areturn
  Labels:

public scala.reflect.Template(scala.collection.immutable.List, scala.collection.immutable.List);
  Signature: (Lscala/collection/immutable/List;Lscala/collection/immutable/List;)V
  Code:
   Stack=2, Locals=3, Args_size=3
	aload_0
	aload_1
	putfield	Field parents:Lscala/collection/immutable/List;
	aload_0
	aload_2
	putfield	Field body:Lscala/collection/immutable/List;
	aload_0
	invokespecial	Method scala/reflect/Tree."<init>":()V
	aload_0
	invokestatic	Method scala/Product$class.$init$:(Lscala/Product;)V
	return
  Labels:
  LocalVariableTable: 
   Start  Length  Slot  Name   Signature
   0      19      0    this       Lscala/reflect/Template;
   0      19      1    parents       Lscala/collection/immutable/List;
   0      19      2    body       Lscala/collection/immutable/List;

  Signature: length = 0x2
   00 2E 

private final boolean gd18$1(scala.collection.immutable.List, scala.collection.immutable.List);
  Signature: (Lscala/collection/immutable/List;Lscala/collection/immutable/List;)Z
  Code:
   Stack=2, Locals=5, Args_size=3
	aload_1
	aload_0
	invokevirtual	Method parents:()Lscala/collection/immutable/List;
	astore_3
	dup
	ifnonnull	l1 // aload_3
	pop
	aload_3
	ifnull	l2 // aload_2
	goto	l3 // iconst_0
l1	aload_3
	invokevirtual	Method java/lang/Object.equals:(Ljava/lang/Object;)Z
	ifeq	l3 // iconst_0
l2	aload_2
	aload_0
	invokevirtual	Method body:()Lscala/collection/immutable/List;
	astore	4
	dup
	ifnonnull	l4 // aload
	pop
	aload	4
	ifnull	l5 // iconst_1
	goto	l3 // iconst_0
l4	aload	4
	invokevirtual	Method java/lang/Object.equals:(Ljava/lang/Object;)Z
	ifeq	l3 // iconst_0
l5	iconst_1
	goto	l6 // ireturn
l3	iconst_0
l6	ireturn
  Labels:
   	l1 = 18 // aload_3
   	l2 = 25 // aload_2
   	l4 = 45 // aload
   	l5 = 53 // iconst_1
   	l3 = 57 // iconst_0
   	l6 = 58 // ireturn

public boolean canEqual(java.lang.Object);
  Signature: (Ljava/lang/Object;)Z
  Code:
   Stack=1, Locals=2, Args_size=2
	aload_1
	instanceof	class scala/reflect/Template
	ireturn
  Labels:

public java.lang.Object productElement(int);
  Signature: (I)Ljava/lang/Object;
  Code:
   Stack=3, Locals=2, Args_size=2
	iload_1
	tableswitch{ //0 to 1
		0: 84;
		1: 58;
		default: 24 }
	iconst_1
	ifeq	l1 // new
	new	class java/lang/IndexOutOfBoundsException
	dup
	iload_1
	invokestatic	Method scala/runtime/BoxesRunTime.boxToInteger:(I)Ljava/lang/Integer;
	invokevirtual	Method java/lang/Object.toString:()Ljava/lang/String;
	invokespecial	Method java/lang/IndexOutOfBoundsException."<init>":(Ljava/lang/String;)V
	athrow
l1	new	class scala/MatchError
	dup
	iload_1
	invokestatic	Method scala/runtime/BoxesRunTime.boxToInteger:(I)Ljava/lang/Integer;
	invokevirtual	Method java/lang/Object.toString:()Ljava/lang/String;
	invokespecial	Method scala/MatchError."<init>":(Ljava/lang/String;)V
	athrow
	iconst_1
	ifeq	l2 // new
	aload_0
	invokevirtual	Method body:()Lscala/collection/immutable/List;
	goto	l3 // areturn
l2	new	class scala/MatchError
	dup
	iload_1
	invokestatic	Method scala/runtime/BoxesRunTime.boxToInteger:(I)Ljava/lang/Integer;
	invokevirtual	Method java/lang/Object.toString:()Ljava/lang/String;
	invokespecial	Method scala/MatchError."<init>":(Ljava/lang/String;)V
	athrow
	iconst_1
	ifeq	l4 // new
	aload_0
	invokevirtual	Method parents:()Lscala/collection/immutable/List;
l3	areturn
l4	new	class scala/MatchError
	dup
	iload_1
	invokestatic	Method scala/runtime/BoxesRunTime.boxToInteger:(I)Ljava/lang/Integer;
	invokevirtual	Method java/lang/Object.toString:()Ljava/lang/String;
	invokespecial	Method scala/MatchError."<init>":(Ljava/lang/String;)V
	athrow
  Labels:
   	l1 = 43 // new
   	l2 = 69 // new
   	l3 = 92 // areturn
   	l4 = 93 // new

public int productArity();
  Signature: ()I
  Code:
   Stack=1, Locals=1, Args_size=1
	iconst_2
	ireturn
  Labels:

public java.lang.String productPrefix();
  Signature: ()Ljava/lang/String;
  Code:
   Stack=1, Locals=1, Args_size=1
	ldc	String Template
	areturn
  Labels:

public boolean equals(java.lang.Object);
  Signature: (Ljava/lang/Object;)Z
  Code:
   Stack=3, Locals=5, Args_size=2
	aload_0
	aload_1
	if_acmpeq	l1 // iconst_1
	aload_1
	instanceof	class scala/reflect/Template
	ifeq	l2 // iconst_1
	aload_1
	checkcast	class scala/reflect/Template
	astore_2
	aload_2
	invokevirtual	Method parents:()Lscala/collection/immutable/List;
	astore_3
	aload_2
	invokevirtual	Method body:()Lscala/collection/immutable/List;
	astore	4
	aload_0
	aload_3
	aload	4
	invokespecial	Method gd18$1:(Lscala/collection/immutable/List;Lscala/collection/immutable/List;)Z
	ifeq	l3 // iconst_1
	aload_1
	checkcast	class scala/reflect/Template
	aload_0
	invokeinterface	InterfaceMethod scala/Equals.canEqual:(Ljava/lang/Object;)Z
	goto	l4 // ifeq
l3	iconst_1
	ifeq	l5 // new
	iconst_0
	goto	l4 // ifeq
l5	new	class scala/MatchError
	dup
	aload_1
	invokevirtual	Method java/lang/Object.toString:()Ljava/lang/String;
	invokespecial	Method scala/MatchError."<init>":(Ljava/lang/String;)V
	athrow
l2	iconst_1
	ifeq	l6 // new
	iconst_0
l4	ifeq	l7 // iconst_0
l1	iconst_1
	goto	l8 // ireturn
l7	iconst_0
l8	ireturn
l6	new	class scala/MatchError
	dup
	aload_1
	invokevirtual	Method java/lang/Object.toString:()Ljava/lang/String;
	invokespecial	Method scala/MatchError."<init>":(Ljava/lang/String;)V
	athrow
  Labels:
   	l3 = 51 // iconst_1
   	l5 = 59 // new
   	l2 = 71 // iconst_1
   	l4 = 76 // ifeq
   	l1 = 79 // iconst_1
   	l7 = 83 // iconst_0
   	l8 = 84 // ireturn
   	l6 = 85 // new
  LocalVariableTable: 
   Start  Length  Slot  Name   Signature
   0      97      0    this       Lscala/reflect/Template;
   17      54      2    temp85       Lscala/reflect/Template;
   22      49      3    temp86       Lscala/collection/immutable/List;
   28      43      4    temp87       Lscala/collection/immutable/List;


public java.lang.String toString();
  Signature: ()Ljava/lang/String;
  Code:
   Stack=2, Locals=1, Args_size=1
	getstatic	Field scala/runtime/ScalaRunTime$.MODULE$:Lscala/runtime/ScalaRunTime$;
	aload_0
	invokevirtual	Method scala/runtime/ScalaRunTime$._toString:(Lscala/Product;)Ljava/lang/String;
	areturn
  Labels:

public int hashCode();
  Signature: ()I
  Code:
   Stack=2, Locals=1, Args_size=1
	getstatic	Field scala/runtime/ScalaRunTime$.MODULE$:Lscala/runtime/ScalaRunTime$;
	aload_0
	invokevirtual	Method scala/runtime/ScalaRunTime$._hashCode:(Lscala/Product;)I
	ireturn
  Labels:

public scala.reflect.Template copy(scala.collection.immutable.List, scala.collection.immutable.List);
  Signature: (Lscala/collection/immutable/List;Lscala/collection/immutable/List;)Lscala/reflect/Template;
  Code:
   Stack=4, Locals=3, Args_size=3
	new	class scala/reflect/Template
	dup
	aload_1
	aload_2
	invokespecial	Method "<init>":(Lscala/collection/immutable/List;Lscala/collection/immutable/List;)V
	areturn
  Labels:
  LocalVariableTable: 
   Start  Length  Slot  Name   Signature
   0      10      0    this       Lscala/reflect/Template;
   0      10      1    parents       Lscala/collection/immutable/List;
   0      10      2    body       Lscala/collection/immutable/List;


public scala.collection.immutable.List body();
  Signature: ()Lscala/collection/immutable/List;
  Code:
   Stack=1, Locals=1, Args_size=1
	aload_0
	getfield	Field body:Lscala/collection/immutable/List;
	areturn
  Labels:
  Signature: length = 0x2
   00 71 

public scala.collection.immutable.List parents();
  Signature: ()Lscala/collection/immutable/List;
  Code:
   Stack=1, Locals=1, Args_size=1
	aload_0
	getfield	Field parents:Lscala/collection/immutable/List;
	areturn
  Labels:
  Signature: length = 0x2
   00 72 

public scala.collection.immutable.List copy$default$1();
  Signature: ()Lscala/collection/immutable/List;
  Code:
   Stack=1, Locals=1, Args_size=1
	aload_0
	invokevirtual	Method parents:()Lscala/collection/immutable/List;
	areturn
  Labels:

public scala.collection.immutable.List copy$default$2();
  Signature: ()Lscala/collection/immutable/List;
  Code:
   Stack=1, Locals=1, Args_size=1
	aload_0
	invokevirtual	Method body:()Lscala/collection/immutable/List;
	areturn
  Labels:

public scala.collection.Iterator productElements();
  Signature: ()Lscala/collection/Iterator;
  Code:
   Stack=1, Locals=1, Args_size=1
	aload_0
	invokestatic	Method scala/Product$class.productElements:(Lscala/Product;)Lscala/collection/Iterator;
	areturn
  Labels:
  Deprecated: true

public scala.collection.Iterator productIterator();
  Signature: ()Lscala/collection/Iterator;
  Code:
   Stack=1, Locals=1, Args_size=1
	aload_0
	invokestatic	Method scala/Product$class.productIterator:(Lscala/Product;)Lscala/collection/Iterator;
	areturn
  Labels:

}

