Compiled from "Decl.scala"
public class scala.xml.dtd.IntDef extends scala.xml.dtd.EntityDef implements scala.ScalaObject,scala.Product,java.io.Serializable
  SourceFile: "Decl.scala"
  ScalaSig: length = 0x3C2
   05 00 FFFFFF81 10 06 08 01 02 FFFFFF84 FFFFFF80 FFFFFF80 FFFFFF80 40 09 02 06
   49 6E 74 44 65 66 0A 02 03 04 01 03 64 74 64 0A
   02 05 06 01 03 78 6D 6C 0A 01 07 01 05 73 63 61
   6C 61 03 00 13 04 00 0A 0E 12 10 02 0B 0C 0D 01
   02 09 02 0D 02 02 09 45 6E 74 69 74 79 44 65 66
   10 02 0F 10 0D 01 06 09 02 11 06 02 0B 53 63 61
   6C 61 4F 62 6A 65 63 74 10 02 0F 13 09 02 14 06
   02 07 50 72 6F 64 75 63 74 08 08 16 00 FFFFFF82 FFFFFFCA FFFFFF80
   FFFFFF84 00 17 01 05 76 61 6C 75 65 15 01 18 10 02 19
   1C 0E 02 0F 1A 09 02 1B 06 01 06 50 72 65 64 65
   66 09 02 1D 1E 02 06 53 74 72 69 6E 67 0A 02 1B
   06 08 08 20 00 FFFFFF82 FFFFFF88 FFFFFFA0 FFFFFF80 04 18 01 06 76 61 6C
   75 65 20 08 05 22 00 FFFFFF84 00 23 01 06 3C 69 6E 69
   74 3E 14 02 24 25 10 02 0B 00 08 05 16 21 FFFFFFC0 00
   18 08 05 27 00 FFFFFF84 04 28 01 0D 76 61 6C 69 64 61
   74 65 56 61 6C 75 65 14 01 29 10 02 0F 2A 09 02
   2B 06 02 04 55 6E 69 74 08 05 2D 00 FFFFFF84 20 2E 01
   0B 62 75 69 6C 64 53 74 72 69 6E 67 14 02 2F 37
   10 02 30 35 0D 01 31 0A 02 32 33 01 07 6D 75 74
   61 62 6C 65 0A 02 34 06 01 0A 63 6F 6C 6C 65 63
   74 69 6F 6E 09 02 36 31 02 0D 53 74 72 69 6E 67
   42 75 69 6C 64 65 72 08 05 38 2C FFFFFFC0 00 2F 01 02
   73 62 08 07 3A 00 FFFFFF81 FFFFFF80 FFFFFF84 00 3B 01 04 63 6F 70
   79 14 02 24 3C 08 08 3D 16 39 FFFFFF90 FFFFFF80 FFFFFFC0 00 18 08
   07 3E 00 FFFFFF91 FFFFFF80 FFFFFF84 00 3F 01 0E 63 6F 70 79 24 64
   65 66 61 75 6C 74 24 31 15 01 40 2A 02 18 41 2B
   01 42 10 02 43 48 0D 01 44 0A 02 45 46 01 09 75
   6E 63 68 65 63 6B 65 64 0A 02 47 06 01 0A 61 6E
   6E 6F 74 61 74 69 6F 6E 09 02 49 44 02 11 75 6E
   63 68 65 63 6B 65 64 56 61 72 69 61 6E 63 65 08
   08 4B 00 FFFFFF84 FFFFFF80 FFFFFF80 FFFFFF84 20 4C 01 08 68 61 73 68 43
   6F 64 65 14 01 4D 10 02 0F 4E 09 02 4F 06 02 03
   49 6E 74 08 08 51 00 FFFFFF84 FFFFFF80 FFFFFF80 FFFFFF84 20 52 01 08 74
   6F 53 74 72 69 6E 67 14 01 18 08 08 54 00 FFFFFF84 FFFFFF80
   FFFFFF80 FFFFFF84 20 55 01 06 65 71 75 61 6C 73 14 02 56 59
   10 02 0F 57 09 02 58 06 02 07 42 6F 6F 6C 65 61
   6E 08 07 5A 53 FFFFFF81 FFFFFF80 FFFFFFC0 00 5B 01 03 78 24 31 10
   02 0F 5C 09 02 5D 06 02 03 41 6E 79 08 08 5F 00
   FFFFFF84 FFFFFF80 FFFFFF80 FFFFFF84 20 60 01 0D 70 72 6F 64 75 63 74 50
   72 65 66 69 78 15 01 61 10 02 62 67 0D 01 63 0A
   02 64 65 01 04 6C 61 6E 67 0A 01 66 01 04 6A 61
   76 61 09 02 1D 63 08 08 69 00 FFFFFF84 FFFFFF80 FFFFFF80 FFFFFF84 20 6A
   01 0C 70 72 6F 64 75 63 74 41 72 69 74 79 15 01
   4D 08 08 6C 00 FFFFFF84 FFFFFF80 FFFFFF80 FFFFFF84 20 6D 01 0E 70 72 6F
   64 75 63 74 45 6C 65 6D 65 6E 74 14 02 5B 6E 08
   07 5A 6B FFFFFF81 FFFFFF80 FFFFFFC0 00 4D 08 08 70 00 FFFFFF84 FFFFFF80 FFFFFF80 FFFFFF84
   20 71 01 08 63 61 6E 45 71 75 61 6C 14 02 56 72
   08 07 5A 6F FFFFFF81 FFFFFF80 FFFFFFC0 00 5B 28 02 00 74 10 02 0F
   75 09 02 76 06 02 0C 73 65 72 69 61 6C 69 7A 61
   62 6C 65 07 07 78 02 FFFFFF81 FFFFFF80 FFFFFF88 02 79 01 06 49 6E
   74 44 65 66 10 02 0B 7A 06 08 01 02 FFFFFF84 FFFFFF81 FFFFFF80 FFFFFF88
   02 7B 13 04 7A 7C 7F 0E 10 02 62 7D 09 02 7E 63
   02 06 4F 62 6A 65 63 74 10 05 0F FFFFFF81 00 18 24 09
   03 FFFFFF81 01 06 02 09 46 75 6E 63 74 69 6F 6E 31 08
   06 22 7A FFFFFF84 00 FFFFFF81 03 14 01 79 08 09 FFFFFF81 05 7A FFFFFF81
   FFFFFF80 FFFFFF84 40 FFFFFF81 06 01 05 61 70 70 6C 79 14 03 24 FFFFFF81
   07 08 06 16 FFFFFF81 04 FFFFFFC0 00 18 08 09 FFFFFF81 09 7A FFFFFF81 FFFFFF80
   FFFFFF84 40 FFFFFF81 0A 01 07 75 6E 61 70 70 6C 79 14 04 FFFFFF81
   0B FFFFFF81 0E 10 04 0F FFFFFF81 0C 18 09 03 FFFFFF81 0D 06 02 04
   53 6F 6D 65 08 07 FFFFFF81 0F FFFFFF81 08 FFFFFFC0 00 24 01 03 78
   24 30 
  minor version: 0
  major version: 49
  Constant pool:
const #1 = Asciz	SourceFile;
const #2 = Asciz	Decl.scala;
const #3 = Asciz	andThen;
const #4 = Asciz	(Lscala/Function1;)Lscala/Function1;;
const #5 = Asciz	Code;
const #6 = Asciz	scala/xml/dtd/IntDef$;
const #7 = class	#6;	//  scala/xml/dtd/IntDef$
const #8 = Asciz	MODULE$;
const #9 = Asciz	Lscala/xml/dtd/IntDef$;;
const #10 = NameAndType	#8:#9;//  MODULE$:Lscala/xml/dtd/IntDef$;
const #11 = Field	#7.#10;	//  scala/xml/dtd/IntDef$.MODULE$:Lscala/xml/dtd/IntDef$;
const #12 = NameAndType	#3:#4;//  andThen:(Lscala/Function1;)Lscala/Function1;
const #13 = Method	#7.#12;	//  scala/xml/dtd/IntDef$.andThen:(Lscala/Function1;)Lscala/Function1;
const #14 = Asciz	compose;
const #15 = NameAndType	#14:#4;//  compose:(Lscala/Function1;)Lscala/Function1;
const #16 = Method	#7.#15;	//  scala/xml/dtd/IntDef$.compose:(Lscala/Function1;)Lscala/Function1;
const #17 = Asciz	value;
const #18 = Asciz	Ljava/lang/String;;
const #19 = Asciz	<init>;
const #20 = Asciz	(Ljava/lang/String;)V;
const #21 = Asciz	LineNumberTable;
const #22 = Asciz	scala/xml/dtd/IntDef;
const #23 = class	#22;	//  scala/xml/dtd/IntDef
const #24 = NameAndType	#17:#18;//  value:Ljava/lang/String;
const #25 = Field	#23.#24;	//  scala/xml/dtd/IntDef.value:Ljava/lang/String;
const #26 = Asciz	scala/xml/dtd/EntityDef;
const #27 = class	#26;	//  scala/xml/dtd/EntityDef
const #28 = Asciz	()V;
const #29 = NameAndType	#19:#28;//  "<init>":()V
const #30 = Method	#27.#29;	//  scala/xml/dtd/EntityDef."<init>":()V
const #31 = Asciz	scala/Product$class;
const #32 = class	#31;	//  scala/Product$class
const #33 = Asciz	$init$;
const #34 = Asciz	(Lscala/Product;)V;
const #35 = NameAndType	#33:#34;//  $init$:(Lscala/Product;)V
const #36 = Method	#32.#35;	//  scala/Product$class.$init$:(Lscala/Product;)V
const #37 = Asciz	validateValue;
const #38 = NameAndType	#37:#28;//  validateValue:()V
const #39 = Method	#23.#38;	//  scala/xml/dtd/IntDef.validateValue:()V
const #40 = Asciz	this;
const #41 = Asciz	Lscala/xml/dtd/IntDef;;
const #42 = Asciz	LocalVariableTable;
const #43 = Asciz	gd8$1;
const #44 = Asciz	(Ljava/lang/String;)Z;
const #45 = Asciz	()Ljava/lang/String;;
const #46 = NameAndType	#17:#45;//  value:()Ljava/lang/String;
const #47 = Method	#23.#46;	//  scala/xml/dtd/IntDef.value:()Ljava/lang/String;
const #48 = Asciz	java/lang/Object;
const #49 = class	#48;	//  java/lang/Object
const #50 = Asciz	equals;
const #51 = Asciz	(Ljava/lang/Object;)Z;
const #52 = NameAndType	#50:#51;//  equals:(Ljava/lang/Object;)Z
const #53 = Method	#49.#52;	//  java/lang/Object.equals:(Ljava/lang/Object;)Z
const #54 = Asciz	canEqual;
const #55 = Asciz	productElement;
const #56 = Asciz	(I)Ljava/lang/Object;;
const #57 = Asciz	scala/MatchError;
const #58 = class	#57;	//  scala/MatchError
const #59 = Asciz	scala/runtime/BoxesRunTime;
const #60 = class	#59;	//  scala/runtime/BoxesRunTime
const #61 = Asciz	boxToInteger;
const #62 = Asciz	(I)Ljava/lang/Integer;;
const #63 = NameAndType	#61:#62;//  boxToInteger:(I)Ljava/lang/Integer;
const #64 = Method	#60.#63;	//  scala/runtime/BoxesRunTime.boxToInteger:(I)Ljava/lang/Integer;
const #65 = Asciz	toString;
const #66 = NameAndType	#65:#45;//  toString:()Ljava/lang/String;
const #67 = Method	#49.#66;	//  java/lang/Object.toString:()Ljava/lang/String;
const #68 = NameAndType	#19:#20;//  "<init>":(Ljava/lang/String;)V
const #69 = Method	#58.#68;	//  scala/MatchError."<init>":(Ljava/lang/String;)V
const #70 = Asciz	java/lang/IndexOutOfBoundsException;
const #71 = class	#70;	//  java/lang/IndexOutOfBoundsException
const #72 = Method	#71.#68;	//  java/lang/IndexOutOfBoundsException."<init>":(Ljava/lang/String;)V
const #73 = Asciz	productArity;
const #74 = Asciz	()I;
const #75 = Asciz	productPrefix;
const #76 = Asciz	IntDef;
const #77 = String	#76;	//  IntDef
const #78 = NameAndType	#43:#44;//  gd8$1:(Ljava/lang/String;)Z
const #79 = Method	#23.#78;	//  scala/xml/dtd/IntDef.gd8$1:(Ljava/lang/String;)Z
const #80 = Asciz	scala/Equals;
const #81 = class	#80;	//  scala/Equals
const #82 = NameAndType	#54:#51;//  canEqual:(Ljava/lang/Object;)Z
const #83 = InterfaceMethod	#81.#82;	//  scala/Equals.canEqual:(Ljava/lang/Object;)Z
const #84 = Asciz	temp39;
const #85 = Asciz	temp40;
const #86 = Asciz	scala/runtime/ScalaRunTime$;
const #87 = class	#86;	//  scala/runtime/ScalaRunTime$
const #88 = Asciz	Lscala/runtime/ScalaRunTime$;;
const #89 = NameAndType	#8:#88;//  MODULE$:Lscala/runtime/ScalaRunTime$;
const #90 = Field	#87.#89;	//  scala/runtime/ScalaRunTime$.MODULE$:Lscala/runtime/ScalaRunTime$;
const #91 = Asciz	_toString;
const #92 = Asciz	(Lscala/Product;)Ljava/lang/String;;
const #93 = NameAndType	#91:#92;//  _toString:(Lscala/Product;)Ljava/lang/String;
const #94 = Method	#87.#93;	//  scala/runtime/ScalaRunTime$._toString:(Lscala/Product;)Ljava/lang/String;
const #95 = Asciz	hashCode;
const #96 = Asciz	_hashCode;
const #97 = Asciz	(Lscala/Product;)I;
const #98 = NameAndType	#96:#97;//  _hashCode:(Lscala/Product;)I
const #99 = Method	#87.#98;	//  scala/runtime/ScalaRunTime$._hashCode:(Lscala/Product;)I
const #100 = Asciz	copy;
const #101 = Asciz	(Ljava/lang/String;)Lscala/xml/dtd/IntDef;;
const #102 = Method	#23.#68;	//  scala/xml/dtd/IntDef."<init>":(Ljava/lang/String;)V
const #103 = Asciz	buildString;
const #104 = Asciz	(Lscala/collection/mutable/StringBuilder;)Lscala/collection/mutable/StringBuilder;;
const #105 = Asciz	scala/xml/Utility$;
const #106 = class	#105;	//  scala/xml/Utility$
const #107 = Asciz	Lscala/xml/Utility$;;
const #108 = NameAndType	#8:#107;//  MODULE$:Lscala/xml/Utility$;
const #109 = Field	#106.#108;	//  scala/xml/Utility$.MODULE$:Lscala/xml/Utility$;
const #110 = Asciz	appendQuoted;
const #111 = Asciz	(Ljava/lang/String;Lscala/collection/mutable/StringBuilder;)Lscala/collection/mutable/StringBuilder;;
const #112 = NameAndType	#110:#111;//  appendQuoted:(Ljava/lang/String;Lscala/collection/mutable/StringBuilder;)Lscala/collection/mutable/StringBuilder;
const #113 = Method	#106.#112;	//  scala/xml/Utility$.appendQuoted:(Ljava/lang/String;Lscala/collection/mutable/StringBuilder;)Lscala/collection/mutable/StringBuilder;
const #114 = Asciz	sb;
const #115 = Asciz	Lscala/collection/mutable/StringBuilder;;
const #116 = int	37;
const #117 = Asciz	java/lang/String;
const #118 = class	#117;	//  java/lang/String
const #119 = Asciz	indexOf;
const #120 = Asciz	(I)I;
const #121 = NameAndType	#119:#120;//  indexOf:(I)I
const #122 = Method	#118.#121;	//  java/lang/String.indexOf:(I)I
const #123 = int	59;
const #124 = Asciz	(II)I;
const #125 = NameAndType	#119:#124;//  indexOf:(II)I
const #126 = Method	#118.#125;	//  java/lang/String.indexOf:(II)I
const #127 = Asciz	java/lang/IllegalArgumentException;
const #128 = class	#127;	//  java/lang/IllegalArgumentException
const #129 = Asciz	no % allowed in entity value, except for parameter-entity-references;
const #130 = String	#129;	//  no % allowed in entity value, except for parameter-entity-references
const #131 = Method	#128.#68;	//  java/lang/IllegalArgumentException."<init>":(Ljava/lang/String;)V
const #132 = Asciz	substring;
const #133 = Asciz	(II)Ljava/lang/String;;
const #134 = NameAndType	#132:#133;//  substring:(II)Ljava/lang/String;
const #135 = Method	#118.#134;	//  java/lang/String.substring:(II)Ljava/lang/String;
const #136 = Asciz	scala/xml/parsing/TokenTests$class;
const #137 = class	#136;	//  scala/xml/parsing/TokenTests$class
const #138 = Asciz	isName;
const #139 = Asciz	(Lscala/xml/parsing/TokenTests;Ljava/lang/String;)Z;
const #140 = NameAndType	#138:#139;//  isName:(Lscala/xml/parsing/TokenTests;Ljava/lang/String;)Z
const #141 = Method	#137.#140;	//  scala/xml/parsing/TokenTests$class.isName:(Lscala/xml/parsing/TokenTests;Ljava/lang/String;)Z
const #142 = Asciz	length;
const #143 = NameAndType	#142:#74;//  length:()I
const #144 = Method	#118.#143;	//  java/lang/String.length:()I
const #145 = Asciz	scala/collection/mutable/StringBuilder;
const #146 = class	#145;	//  scala/collection/mutable/StringBuilder
const #147 = Method	#146.#29;	//  scala/collection/mutable/StringBuilder."<init>":()V
const #148 = Asciz	interal entity def: \";
const #149 = String	#148;	//  interal entity def: \"
const #150 = Asciz	append;
const #151 = Asciz	(Ljava/lang/Object;)Lscala/collection/mutable/StringBuilder;;
const #152 = NameAndType	#150:#151;//  append:(Ljava/lang/Object;)Lscala/collection/mutable/StringBuilder;
const #153 = Method	#146.#152;	//  scala/collection/mutable/StringBuilder.append:(Ljava/lang/Object;)Lscala/collection/mutable/StringBuilder;
const #154 = Asciz	\" must be an XML Name;
const #155 = String	#154;	//  \" must be an XML Name
const #156 = Method	#146.#66;	//  scala/collection/mutable/StringBuilder.toString:()Ljava/lang/String;
const #157 = Asciz	iz;
const #158 = Asciz	I;
const #159 = Asciz	tmp;
const #160 = Asciz	ix;
const #161 = Asciz	n;
const #162 = Asciz	copy$default$1;
const #163 = Asciz	productElements;
const #164 = Asciz	()Lscala/collection/Iterator;;
const #165 = Asciz	(Lscala/Product;)Lscala/collection/Iterator;;
const #166 = NameAndType	#163:#165;//  productElements:(Lscala/Product;)Lscala/collection/Iterator;
const #167 = Method	#32.#166;	//  scala/Product$class.productElements:(Lscala/Product;)Lscala/collection/Iterator;
const #168 = Asciz	productIterator;
const #169 = NameAndType	#168:#165;//  productIterator:(Lscala/Product;)Lscala/collection/Iterator;
const #170 = Method	#32.#169;	//  scala/Product$class.productIterator:(Lscala/Product;)Lscala/collection/Iterator;
const #171 = Asciz	ScalaSig;
const #172 = Asciz	scala/ScalaObject;
const #173 = class	#172;	//  scala/ScalaObject
const #174 = Asciz	scala/Product;
const #175 = class	#174;	//  scala/Product
const #176 = Asciz	java/io/Serializable;
const #177 = class	#176;	//  java/io/Serializable

{
public static final scala.Function1 andThen(scala.Function1);
  Code:
   Stack=2, Locals=1, Args_size=1
   0:	getstatic	#11; //Field scala/xml/dtd/IntDef$.MODULE$:Lscala/xml/dtd/IntDef$;
   3:	aload_0
   4:	invokevirtual	#13; //Method scala/xml/dtd/IntDef$.andThen:(Lscala/Function1;)Lscala/Function1;
   7:	areturn

public static final scala.Function1 compose(scala.Function1);
  Code:
   Stack=2, Locals=1, Args_size=1
   0:	getstatic	#11; //Field scala/xml/dtd/IntDef$.MODULE$:Lscala/xml/dtd/IntDef$;
   3:	aload_0
   4:	invokevirtual	#16; //Method scala/xml/dtd/IntDef$.compose:(Lscala/Function1;)Lscala/Function1;
   7:	areturn

public scala.xml.dtd.IntDef(java.lang.String);
  Code:
   Stack=2, Locals=2, Args_size=2
   0:	aload_0
   1:	aload_1
   2:	putfield	#25; //Field value:Ljava/lang/String;
   5:	aload_0
   6:	invokespecial	#30; //Method scala/xml/dtd/EntityDef."<init>":()V
   9:	aload_0
   10:	invokestatic	#36; //Method scala/Product$class.$init$:(Lscala/Product;)V
   13:	aload_0
   14:	invokespecial	#39; //Method validateValue:()V
   17:	return
  LineNumberTable: 
   line 105: 0
   line 124: 13

  LocalVariableTable: 
   Start  Length  Slot  Name   Signature
   0      18      0    this       Lscala/xml/dtd/IntDef;
   0      18      1    value       Ljava/lang/String;


public boolean canEqual(java.lang.Object);
  Code:
   Stack=1, Locals=2, Args_size=2
   0:	aload_1
   1:	instanceof	#23; //class scala/xml/dtd/IntDef
   4:	ireturn
  LineNumberTable: 
   line 105: 0


public java.lang.Object productElement(int);
  Code:
   Stack=3, Locals=2, Args_size=2
   0:	iload_1
   1:	iconst_0
   2:	if_icmpne	29
   5:	iconst_1
   6:	ifeq	14
   9:	aload_0
   10:	invokevirtual	#47; //Method value:()Ljava/lang/String;
   13:	areturn
   14:	new	#58; //class scala/MatchError
   17:	dup
   18:	iload_1
   19:	invokestatic	#64; //Method scala/runtime/BoxesRunTime.boxToInteger:(I)Ljava/lang/Integer;
   22:	invokevirtual	#67; //Method java/lang/Object.toString:()Ljava/lang/String;
   25:	invokespecial	#69; //Method scala/MatchError."<init>":(Ljava/lang/String;)V
   28:	athrow
   29:	iconst_1
   30:	ifeq	48
   33:	new	#71; //class java/lang/IndexOutOfBoundsException
   36:	dup
   37:	iload_1
   38:	invokestatic	#64; //Method scala/runtime/BoxesRunTime.boxToInteger:(I)Ljava/lang/Integer;
   41:	invokevirtual	#67; //Method java/lang/Object.toString:()Ljava/lang/String;
   44:	invokespecial	#72; //Method java/lang/IndexOutOfBoundsException."<init>":(Ljava/lang/String;)V
   47:	athrow
   48:	new	#58; //class scala/MatchError
   51:	dup
   52:	iload_1
   53:	invokestatic	#64; //Method scala/runtime/BoxesRunTime.boxToInteger:(I)Ljava/lang/Integer;
   56:	invokevirtual	#67; //Method java/lang/Object.toString:()Ljava/lang/String;
   59:	invokespecial	#69; //Method scala/MatchError."<init>":(Ljava/lang/String;)V
   62:	athrow
  LineNumberTable: 
   line 105: 0
   line 21: 5
   line 105: 9
   line 21: 29
   line 105: 33


public int productArity();
  Code:
   Stack=1, Locals=1, Args_size=1
   0:	iconst_1
   1:	ireturn
  LineNumberTable: 
   line 105: 0


public java.lang.String productPrefix();
  Code:
   Stack=1, Locals=1, Args_size=1
   0:	ldc	#77; //String IntDef
   2:	areturn
  LineNumberTable: 
   line 105: 0


public boolean equals(java.lang.Object);
  Code:
   Stack=3, Locals=4, Args_size=2
   0:	aload_0
   1:	aload_1
   2:	if_acmpeq	71
   5:	aload_1
   6:	instanceof	#23; //class scala/xml/dtd/IntDef
   9:	ifeq	63
   12:	aload_1
   13:	checkcast	#23; //class scala/xml/dtd/IntDef
   16:	astore_2
   17:	aload_2
   18:	invokevirtual	#47; //Method value:()Ljava/lang/String;
   21:	astore_3
   22:	aload_0
   23:	aload_3
   24:	invokespecial	#79; //Method gd8$1:(Ljava/lang/String;)Z
   27:	ifeq	43
   30:	aload_1
   31:	checkcast	#23; //class scala/xml/dtd/IntDef
   34:	aload_0
   35:	invokeinterface	#83,  2; //InterfaceMethod scala/Equals.canEqual:(Ljava/lang/Object;)Z
   40:	goto	68
   43:	iconst_1
   44:	ifeq	51
   47:	iconst_0
   48:	goto	68
   51:	new	#58; //class scala/MatchError
   54:	dup
   55:	aload_1
   56:	invokevirtual	#67; //Method java/lang/Object.toString:()Ljava/lang/String;
   59:	invokespecial	#69; //Method scala/MatchError."<init>":(Ljava/lang/String;)V
   62:	athrow
   63:	iconst_1
   64:	ifeq	77
   67:	iconst_0
   68:	ifeq	75
   71:	iconst_1
   72:	goto	76
   75:	iconst_0
   76:	ireturn
   77:	new	#58; //class scala/MatchError
   80:	dup
   81:	aload_1
   82:	invokevirtual	#67; //Method java/lang/Object.toString:()Ljava/lang/String;
   85:	invokespecial	#69; //Method scala/MatchError."<init>":(Ljava/lang/String;)V
   88:	athrow
  LineNumberTable: 
   line 105: 0
   line 21: 43
   line 105: 51
   line 21: 63
   line 105: 68

  LocalVariableTable: 
   Start  Length  Slot  Name   Signature
   0      89      0    this       Lscala/xml/dtd/IntDef;
   17      46      2    temp39       Lscala/xml/dtd/IntDef;
   22      41      3    temp40       Ljava/lang/String;


public java.lang.String toString();
  Code:
   Stack=2, Locals=1, Args_size=1
   0:	getstatic	#90; //Field scala/runtime/ScalaRunTime$.MODULE$:Lscala/runtime/ScalaRunTime$;
   3:	aload_0
   4:	invokevirtual	#94; //Method scala/runtime/ScalaRunTime$._toString:(Lscala/Product;)Ljava/lang/String;
   7:	areturn
  LineNumberTable: 
   line 105: 0


public int hashCode();
  Code:
   Stack=2, Locals=1, Args_size=1
   0:	getstatic	#90; //Field scala/runtime/ScalaRunTime$.MODULE$:Lscala/runtime/ScalaRunTime$;
   3:	aload_0
   4:	invokevirtual	#99; //Method scala/runtime/ScalaRunTime$._hashCode:(Lscala/Product;)I
   7:	ireturn
  LineNumberTable: 
   line 105: 0


public scala.xml.dtd.IntDef copy(java.lang.String);
  Code:
   Stack=3, Locals=2, Args_size=2
   0:	new	#23; //class scala/xml/dtd/IntDef
   3:	dup
   4:	aload_1
   5:	invokespecial	#102; //Method "<init>":(Ljava/lang/String;)V
   8:	areturn
  LineNumberTable: 
   line 105: 0

  LocalVariableTable: 
   Start  Length  Slot  Name   Signature
   0      9      0    this       Lscala/xml/dtd/IntDef;
   0      9      1    value       Ljava/lang/String;


public scala.collection.mutable.StringBuilder buildString(scala.collection.mutable.StringBuilder);
  Code:
   Stack=3, Locals=2, Args_size=2
   0:	getstatic	#109; //Field scala/xml/Utility$.MODULE$:Lscala/xml/Utility$;
   3:	aload_0
   4:	invokevirtual	#47; //Method value:()Ljava/lang/String;
   7:	aload_1
   8:	invokevirtual	#113; //Method scala/xml/Utility$.appendQuoted:(Ljava/lang/String;Lscala/collection/mutable/StringBuilder;)Lscala/collection/mutable/StringBuilder;
   11:	areturn
  LineNumberTable: 
   line 127: 0

  LocalVariableTable: 
   Start  Length  Slot  Name   Signature
   0      12      0    this       Lscala/xml/dtd/IntDef;
   0      12      1    sb       Lscala/collection/mutable/StringBuilder;


public java.lang.String value();
  Code:
   Stack=1, Locals=1, Args_size=1
   0:	aload_0
   1:	getfield	#25; //Field value:Ljava/lang/String;
   4:	areturn
  LineNumberTable: 
   line 105: 0


public java.lang.String copy$default$1();
  Code:
   Stack=1, Locals=1, Args_size=1
   0:	aload_0
   1:	invokevirtual	#47; //Method value:()Ljava/lang/String;
   4:	areturn
  LineNumberTable: 
   line 105: 0


public scala.collection.Iterator productElements();
  Code:
   Stack=1, Locals=1, Args_size=1
   0:	aload_0
   1:	invokestatic	#167; //Method scala/Product$class.productElements:(Lscala/Product;)Lscala/collection/Iterator;
   4:	areturn
  LineNumberTable: 
   line 105: 0


public scala.collection.Iterator productIterator();
  Code:
   Stack=1, Locals=1, Args_size=1
   0:	aload_0
   1:	invokestatic	#170; //Method scala/Product$class.productIterator:(Lscala/Product;)Lscala/collection/Iterator;
   4:	areturn
  LineNumberTable: 
   line 105: 0


}

