Compiled from "Decl.scala"
public class scala.xml.dtd.IntDef extends scala.xml.dtd.EntityDef implements scala.ScalaObject,scala.Product,java.io.Serializable
  SourceFile: "Decl.scala"
  ScalaSig: length = 0x380
   05 00 FFFFFF81 09 06 08 01 02 FFFFFF84 FFFFFF80 FFFFFF80 FFFFFF80 40 09 02 06
   49 6E 74 44 65 66 0A 02 03 04 01 03 64 74 64 0A
   02 05 06 01 03 78 6D 6C 0A 01 07 01 05 73 63 61
   6C 61 03 00 13 04 00 0A 0E 12 10 02 0B 0C 0D 01
   02 09 02 0D 02 02 09 45 6E 74 69 74 79 44 65 66
   10 02 0F 10 0D 01 06 09 02 11 06 02 0B 53 63 61
   6C 61 4F 62 6A 65 63 74 10 02 0F 13 09 02 14 06
   02 07 50 72 6F 64 75 63 74 08 08 16 00 FFFFFF82 FFFFFFCA FFFFFF80
   FFFFFF84 00 17 01 05 76 61 6C 75 65 15 01 18 10 02 19
   1C 0E 02 0F 1A 09 02 1B 06 01 06 50 72 65 64 65
   66 09 02 1D 1E 02 06 53 74 72 69 6E 67 0A 02 1B
   06 08 08 20 00 FFFFFF82 FFFFFF88 FFFFFFA0 FFFFFF80 04 18 01 06 76 61 6C
   75 65 20 08 05 22 00 FFFFFF84 00 23 01 06 3C 69 6E 69
   74 3E 14 02 24 25 10 02 0B 00 08 05 16 21 FFFFFFC0 00
   18 08 05 27 00 FFFFFF84 04 28 01 0D 76 61 6C 69 64 61
   74 65 56 61 6C 75 65 14 01 29 10 02 0F 2A 09 02
   2B 06 02 04 55 6E 69 74 08 05 2D 00 FFFFFF84 20 2E 01
   0B 62 75 69 6C 64 53 74 72 69 6E 67 14 02 2F 3B
   10 02 30 38 0E 02 31 36 0E 02 32 35 0D 01 33 0A
   02 34 08 01 06 3C 72 6F 6F 74 3E 09 01 07 09 02
   37 06 01 07 70 61 63 6B 61 67 65 09 02 39 3A 02
   0D 53 74 72 69 6E 67 42 75 69 6C 64 65 72 0A 02
   37 06 08 05 3C 2C FFFFFFC0 00 2F 01 02 73 62 08 07 3E
   00 FFFFFF81 FFFFFF80 FFFFFF84 00 3F 01 04 63 6F 70 79 14 02 24 40
   08 08 41 16 3D FFFFFF90 FFFFFF80 FFFFFFC0 00 18 08 07 42 00 FFFFFF91 FFFFFF80
   FFFFFF84 00 17 01 0E 63 6F 70 79 24 64 65 66 61 75 6C
   74 24 31 08 08 44 00 FFFFFF84 FFFFFF80 FFFFFF80 FFFFFF84 20 45 01 08 68
   61 73 68 43 6F 64 65 14 01 46 10 02 0F 47 09 02
   48 06 02 03 49 6E 74 08 08 4A 00 FFFFFF84 FFFFFF80 FFFFFF80 FFFFFF84 20
   4B 01 08 74 6F 53 74 72 69 6E 67 14 01 18 08 08
   4D 00 FFFFFF84 FFFFFF80 FFFFFF80 FFFFFF84 20 4E 01 06 65 71 75 61 6C 73
   14 02 4F 52 10 02 0F 50 09 02 51 06 02 07 42 6F
   6F 6C 65 61 6E 08 07 53 4C FFFFFF81 FFFFFF80 FFFFFFC0 00 54 01 03
   78 24 31 10 02 0F 55 09 02 56 06 02 03 41 6E 79
   08 08 58 00 FFFFFF84 FFFFFF80 FFFFFF80 FFFFFF84 20 59 01 0D 70 72 6F 64
   75 63 74 50 72 65 66 69 78 15 01 5A 10 02 5B 60
   0D 01 5C 0A 02 5D 5E 01 04 6C 61 6E 67 0A 01 5F
   01 04 6A 61 76 61 09 02 1D 5C 08 08 62 00 FFFFFF84 FFFFFF80
   FFFFFF80 FFFFFF84 20 63 01 0C 70 72 6F 64 75 63 74 41 72 69
   74 79 15 01 46 08 08 65 00 FFFFFF84 FFFFFF80 FFFFFF80 FFFFFF84 20 66 01
   0E 70 72 6F 64 75 63 74 45 6C 65 6D 65 6E 74 14
   02 54 67 08 07 53 64 FFFFFF81 FFFFFF80 FFFFFFC0 00 46 08 08 69 00
   FFFFFF84 FFFFFF80 FFFFFF80 FFFFFF84 20 6A 01 08 63 61 6E 45 71 75 61 6C
   14 02 4F 6B 08 07 53 68 FFFFFF81 FFFFFF80 FFFFFFC0 00 54 28 02 00
   6D 10 02 0F 6E 09 02 6F 06 02 0C 73 65 72 69 61
   6C 69 7A 61 62 6C 65 07 07 71 02 FFFFFF81 FFFFFF80 FFFFFF88 02 72
   01 06 49 6E 74 44 65 66 10 02 0B 73 06 08 01 02
   FFFFFF84 FFFFFF81 FFFFFF80 FFFFFF88 02 74 13 04 73 75 78 0E 10 02 5B 76
   09 02 77 5C 02 06 4F 62 6A 65 63 74 10 04 0F 79
   18 24 09 02 7A 06 02 09 46 75 6E 63 74 69 6F 6E
   31 08 05 22 73 FFFFFF84 00 7C 14 01 72 08 07 7E 73 FFFFFF81
   FFFFFF80 FFFFFF84 40 7F 01 05 61 70 70 6C 79 14 03 24 FFFFFF81 00
   08 05 16 7D FFFFFFC0 00 18 08 09 FFFFFF81 02 73 FFFFFF81 FFFFFF80 FFFFFF84 40
   FFFFFF81 03 01 07 75 6E 61 70 70 6C 79 14 04 FFFFFF81 04 FFFFFF81
   07 10 04 0F FFFFFF81 05 18 09 03 FFFFFF81 06 06 02 04 53 6F
   6D 65 08 07 FFFFFF81 08 FFFFFF81 01 FFFFFFC0 00 24 01 03 78 24 30
   
  minor version: 0
  major version: 49
  Constant pool:
const #1 = Asciz	SourceFile;
const #2 = Asciz	Decl.scala;
const #3 = Asciz	value;
const #4 = Asciz	Ljava/lang/String;;
const #5 = Asciz	<init>;
const #6 = Asciz	(Ljava/lang/String;)V;
const #7 = Asciz	Code;
const #8 = Asciz	LineNumberTable;
const #9 = Asciz	scala/xml/dtd/IntDef;
const #10 = class	#9;	//  scala/xml/dtd/IntDef
const #11 = NameAndType	#3:#4;//  value:Ljava/lang/String;
const #12 = Field	#10.#11;	//  scala/xml/dtd/IntDef.value:Ljava/lang/String;
const #13 = Asciz	scala/xml/dtd/EntityDef;
const #14 = class	#13;	//  scala/xml/dtd/EntityDef
const #15 = Asciz	()V;
const #16 = NameAndType	#5:#15;//  "<init>":()V
const #17 = Method	#14.#16;	//  scala/xml/dtd/EntityDef."<init>":()V
const #18 = Asciz	scala/Product$class;
const #19 = class	#18;	//  scala/Product$class
const #20 = Asciz	$init$;
const #21 = Asciz	(Lscala/Product;)V;
const #22 = NameAndType	#20:#21;//  $init$:(Lscala/Product;)V
const #23 = Method	#19.#22;	//  scala/Product$class.$init$:(Lscala/Product;)V
const #24 = Asciz	validateValue;
const #25 = NameAndType	#24:#15;//  validateValue:()V
const #26 = Method	#10.#25;	//  scala/xml/dtd/IntDef.validateValue:()V
const #27 = Asciz	this;
const #28 = Asciz	Lscala/xml/dtd/IntDef;;
const #29 = Asciz	LocalVariableTable;
const #30 = Asciz	gd8$1;
const #31 = Asciz	(Ljava/lang/String;)Z;
const #32 = Asciz	()Ljava/lang/String;;
const #33 = NameAndType	#3:#32;//  value:()Ljava/lang/String;
const #34 = Method	#10.#33;	//  scala/xml/dtd/IntDef.value:()Ljava/lang/String;
const #35 = Asciz	java/lang/Object;
const #36 = class	#35;	//  java/lang/Object
const #37 = Asciz	equals;
const #38 = Asciz	(Ljava/lang/Object;)Z;
const #39 = NameAndType	#37:#38;//  equals:(Ljava/lang/Object;)Z
const #40 = Method	#36.#39;	//  java/lang/Object.equals:(Ljava/lang/Object;)Z
const #41 = Asciz	canEqual;
const #42 = Asciz	productElement;
const #43 = Asciz	(I)Ljava/lang/Object;;
const #44 = Asciz	scala/runtime/BoxesRunTime;
const #45 = class	#44;	//  scala/runtime/BoxesRunTime
const #46 = Asciz	boxToInteger;
const #47 = Asciz	(I)Ljava/lang/Integer;;
const #48 = NameAndType	#46:#47;//  boxToInteger:(I)Ljava/lang/Integer;
const #49 = Method	#45.#48;	//  scala/runtime/BoxesRunTime.boxToInteger:(I)Ljava/lang/Integer;
const #50 = Asciz	(Ljava/lang/Object;Ljava/lang/Object;)Z;
const #51 = NameAndType	#37:#50;//  equals:(Ljava/lang/Object;Ljava/lang/Object;)Z
const #52 = Method	#45.#51;	//  scala/runtime/BoxesRunTime.equals:(Ljava/lang/Object;Ljava/lang/Object;)Z
const #53 = Asciz	java/lang/IndexOutOfBoundsException;
const #54 = class	#53;	//  java/lang/IndexOutOfBoundsException
const #55 = Asciz	toString;
const #56 = NameAndType	#55:#32;//  toString:()Ljava/lang/String;
const #57 = Method	#36.#56;	//  java/lang/Object.toString:()Ljava/lang/String;
const #58 = NameAndType	#5:#6;//  "<init>":(Ljava/lang/String;)V
const #59 = Method	#54.#58;	//  java/lang/IndexOutOfBoundsException."<init>":(Ljava/lang/String;)V
const #60 = Asciz	temp41;
const #61 = Asciz	I;
const #62 = Asciz	productArity;
const #63 = Asciz	()I;
const #64 = Asciz	productPrefix;
const #65 = Asciz	IntDef;
const #66 = String	#65;	//  IntDef
const #67 = NameAndType	#30:#31;//  gd8$1:(Ljava/lang/String;)Z
const #68 = Method	#10.#67;	//  scala/xml/dtd/IntDef.gd8$1:(Ljava/lang/String;)Z
const #69 = Asciz	scala/Product;
const #70 = class	#69;	//  scala/Product
const #71 = NameAndType	#41:#38;//  canEqual:(Ljava/lang/Object;)Z
const #72 = InterfaceMethod	#70.#71;	//  scala/Product.canEqual:(Ljava/lang/Object;)Z
const #73 = Asciz	temp38;
const #74 = Asciz	Ljava/lang/Object;;
const #75 = Asciz	temp39;
const #76 = Asciz	temp40;
const #77 = Asciz	value$1;
const #78 = Asciz	scala/runtime/ScalaRunTime$;
const #79 = class	#78;	//  scala/runtime/ScalaRunTime$
const #80 = Asciz	MODULE$;
const #81 = Asciz	Lscala/runtime/ScalaRunTime$;;
const #82 = NameAndType	#80:#81;//  MODULE$:Lscala/runtime/ScalaRunTime$;
const #83 = Field	#79.#82;	//  scala/runtime/ScalaRunTime$.MODULE$:Lscala/runtime/ScalaRunTime$;
const #84 = Asciz	_toString;
const #85 = Asciz	(Lscala/Product;)Ljava/lang/String;;
const #86 = NameAndType	#84:#85;//  _toString:(Lscala/Product;)Ljava/lang/String;
const #87 = Method	#79.#86;	//  scala/runtime/ScalaRunTime$._toString:(Lscala/Product;)Ljava/lang/String;
const #88 = Asciz	hashCode;
const #89 = Asciz	_hashCode;
const #90 = Asciz	(Lscala/Product;)I;
const #91 = NameAndType	#89:#90;//  _hashCode:(Lscala/Product;)I
const #92 = Method	#79.#91;	//  scala/runtime/ScalaRunTime$._hashCode:(Lscala/Product;)I
const #93 = Asciz	copy$default$1;
const #94 = Asciz	copy;
const #95 = Asciz	(Ljava/lang/String;)Lscala/xml/dtd/IntDef;;
const #96 = Method	#10.#58;	//  scala/xml/dtd/IntDef."<init>":(Ljava/lang/String;)V
const #97 = Asciz	buildString;
const #98 = Asciz	(Lscala/collection/mutable/StringBuilder;)Lscala/collection/mutable/StringBuilder;;
const #99 = Asciz	scala/xml/Utility$;
const #100 = class	#99;	//  scala/xml/Utility$
const #101 = Asciz	Lscala/xml/Utility$;;
const #102 = NameAndType	#80:#101;//  MODULE$:Lscala/xml/Utility$;
const #103 = Field	#100.#102;	//  scala/xml/Utility$.MODULE$:Lscala/xml/Utility$;
const #104 = Asciz	appendQuoted;
const #105 = Asciz	(Ljava/lang/String;Lscala/collection/mutable/StringBuilder;)Lscala/collection/mutable/StringBuilder;;
const #106 = NameAndType	#104:#105;//  appendQuoted:(Ljava/lang/String;Lscala/collection/mutable/StringBuilder;)Lscala/collection/mutable/StringBuilder;
const #107 = Method	#100.#106;	//  scala/xml/Utility$.appendQuoted:(Ljava/lang/String;Lscala/collection/mutable/StringBuilder;)Lscala/collection/mutable/StringBuilder;
const #108 = Asciz	sb;
const #109 = Asciz	Lscala/collection/mutable/StringBuilder;;
const #110 = int	37;
const #111 = Asciz	java/lang/String;
const #112 = class	#111;	//  java/lang/String
const #113 = Asciz	indexOf;
const #114 = Asciz	(I)I;
const #115 = NameAndType	#113:#114;//  indexOf:(I)I
const #116 = Method	#112.#115;	//  java/lang/String.indexOf:(I)I
const #117 = int	59;
const #118 = Asciz	(II)I;
const #119 = NameAndType	#113:#118;//  indexOf:(II)I
const #120 = Method	#112.#119;	//  java/lang/String.indexOf:(II)I
const #121 = Asciz	java/lang/IllegalArgumentException;
const #122 = class	#121;	//  java/lang/IllegalArgumentException
const #123 = Asciz	no % allowed in entity value, except for parameter-entity-references;
const #124 = String	#123;	//  no % allowed in entity value, except for parameter-entity-references
const #125 = Method	#122.#58;	//  java/lang/IllegalArgumentException."<init>":(Ljava/lang/String;)V
const #126 = Asciz	substring;
const #127 = Asciz	(II)Ljava/lang/String;;
const #128 = NameAndType	#126:#127;//  substring:(II)Ljava/lang/String;
const #129 = Method	#112.#128;	//  java/lang/String.substring:(II)Ljava/lang/String;
const #130 = Asciz	scala/xml/parsing/TokenTests;
const #131 = class	#130;	//  scala/xml/parsing/TokenTests
const #132 = Asciz	isName;
const #133 = NameAndType	#132:#31;//  isName:(Ljava/lang/String;)Z
const #134 = InterfaceMethod	#131.#133;	//  scala/xml/parsing/TokenTests.isName:(Ljava/lang/String;)Z
const #135 = Asciz	length;
const #136 = NameAndType	#135:#63;//  length:()I
const #137 = Method	#112.#136;	//  java/lang/String.length:()I
const #138 = Asciz	scala/collection/mutable/StringBuilder;
const #139 = class	#138;	//  scala/collection/mutable/StringBuilder
const #140 = Method	#139.#16;	//  scala/collection/mutable/StringBuilder."<init>":()V
const #141 = Asciz	interal entity def: \";
const #142 = String	#141;	//  interal entity def: \"
const #143 = Asciz	append;
const #144 = Asciz	(Ljava/lang/Object;)Lscala/collection/mutable/StringBuilder;;
const #145 = NameAndType	#143:#144;//  append:(Ljava/lang/Object;)Lscala/collection/mutable/StringBuilder;
const #146 = Method	#139.#145;	//  scala/collection/mutable/StringBuilder.append:(Ljava/lang/Object;)Lscala/collection/mutable/StringBuilder;
const #147 = Asciz	\" must be an XML Name;
const #148 = String	#147;	//  \" must be an XML Name
const #149 = Method	#139.#56;	//  scala/collection/mutable/StringBuilder.toString:()Ljava/lang/String;
const #150 = Asciz	tmp;
const #151 = Asciz	ix;
const #152 = Asciz	iz;
const #153 = Asciz	n;
const #154 = Asciz	productElements;
const #155 = Asciz	()Lscala/collection/Iterator;;
const #156 = Asciz	(Lscala/Product;)Lscala/collection/Iterator;;
const #157 = NameAndType	#154:#156;//  productElements:(Lscala/Product;)Lscala/collection/Iterator;
const #158 = Method	#19.#157;	//  scala/Product$class.productElements:(Lscala/Product;)Lscala/collection/Iterator;
const #159 = Asciz	productIterator;
const #160 = NameAndType	#159:#156;//  productIterator:(Lscala/Product;)Lscala/collection/Iterator;
const #161 = Method	#19.#160;	//  scala/Product$class.productIterator:(Lscala/Product;)Lscala/collection/Iterator;
const #162 = Asciz	ScalaSig;
const #163 = Asciz	scala/ScalaObject;
const #164 = class	#163;	//  scala/ScalaObject
const #165 = Asciz	java/io/Serializable;
const #166 = class	#165;	//  java/io/Serializable

{
public scala.xml.dtd.IntDef(java.lang.String);
  Code:
   Stack=2, Locals=2, Args_size=2
   0:	aload_0
   1:	aload_1
   2:	putfield	#12; //Field value:Ljava/lang/String;
   5:	aload_0
   6:	invokespecial	#17; //Method scala/xml/dtd/EntityDef."<init>":()V
   9:	aload_0
   10:	invokestatic	#23; //Method scala/Product$class.$init$:(Lscala/Product;)V
   13:	aload_0
   14:	invokespecial	#26; //Method validateValue:()V
   17:	return
  LineNumberTable: 
   line 102: 0
   line 121: 13

  LocalVariableTable: 
   Start  Length  Slot  Name   Signature
   0      18      0    this       Lscala/xml/dtd/IntDef;
   0      18      1    value       Ljava/lang/String;


public boolean canEqual(java.lang.Object);
  Code:
   Stack=1, Locals=2, Args_size=2
   0:	aload_1
   1:	instanceof	#10; //class scala/xml/dtd/IntDef
   4:	ireturn
  LineNumberTable: 
   line 102: 0


public java.lang.Object productElement(int);
  Code:
   Stack=3, Locals=3, Args_size=2
   0:	iload_1
   1:	istore_2
   2:	iload_2
   3:	invokestatic	#49; //Method scala/runtime/BoxesRunTime.boxToInteger:(I)Ljava/lang/Integer;
   6:	iconst_0
   7:	invokestatic	#49; //Method scala/runtime/BoxesRunTime.boxToInteger:(I)Ljava/lang/Integer;
   10:	invokestatic	#52; //Method scala/runtime/BoxesRunTime.equals:(Ljava/lang/Object;Ljava/lang/Object;)Z
   13:	ifeq	21
   16:	aload_0
   17:	invokevirtual	#34; //Method value:()Ljava/lang/String;
   20:	areturn
   21:	new	#54; //class java/lang/IndexOutOfBoundsException
   24:	dup
   25:	iload_1
   26:	invokestatic	#49; //Method scala/runtime/BoxesRunTime.boxToInteger:(I)Ljava/lang/Integer;
   29:	invokevirtual	#57; //Method java/lang/Object.toString:()Ljava/lang/String;
   32:	invokespecial	#59; //Method java/lang/IndexOutOfBoundsException."<init>":(Ljava/lang/String;)V
   35:	athrow
  LineNumberTable: 
   line 102: 0

  LocalVariableTable: 
   Start  Length  Slot  Name   Signature
   0      36      0    this       Lscala/xml/dtd/IntDef;
   2      34      2    temp41       I


public int productArity();
  Code:
   Stack=1, Locals=1, Args_size=1
   0:	iconst_1
   1:	ireturn
  LineNumberTable: 
   line 102: 0


public java.lang.String productPrefix();
  Code:
   Stack=1, Locals=1, Args_size=1
   0:	ldc	#66; //String IntDef
   2:	areturn
  LineNumberTable: 
   line 102: 0


public boolean equals(java.lang.Object);
  Code:
   Stack=2, Locals=6, Args_size=2
   0:	aload_0
   1:	aload_1
   2:	if_acmpeq	59
   5:	aload_1
   6:	astore_2
   7:	aload_2
   8:	instanceof	#10; //class scala/xml/dtd/IntDef
   11:	ifeq	55
   14:	aload_2
   15:	checkcast	#10; //class scala/xml/dtd/IntDef
   18:	astore_3
   19:	aload_3
   20:	invokevirtual	#34; //Method value:()Ljava/lang/String;
   23:	astore	4
   25:	aload	4
   27:	astore	5
   29:	aload_0
   30:	aload	5
   32:	invokespecial	#68; //Method gd8$1:(Ljava/lang/String;)Z
   35:	ifeq	51
   38:	aload_1
   39:	checkcast	#10; //class scala/xml/dtd/IntDef
   42:	aload_0
   43:	invokeinterface	#72,  2; //InterfaceMethod scala/Product.canEqual:(Ljava/lang/Object;)Z
   48:	goto	56
   51:	iconst_0
   52:	goto	56
   55:	iconst_0
   56:	ifeq	63
   59:	iconst_1
   60:	goto	64
   63:	iconst_0
   64:	ireturn
  LineNumberTable: 
   line 102: 0
   line 26: 51
   line 102: 56

  LocalVariableTable: 
   Start  Length  Slot  Name   Signature
   0      65      0    this       Lscala/xml/dtd/IntDef;
   7      52      2    temp38       Ljava/lang/Object;
   19      36      3    temp39       Lscala/xml/dtd/IntDef;
   25      30      4    temp40       Ljava/lang/String;
   29      26      5    value$1       Ljava/lang/String;


public java.lang.String toString();
  Code:
   Stack=2, Locals=1, Args_size=1
   0:	getstatic	#83; //Field scala/runtime/ScalaRunTime$.MODULE$:Lscala/runtime/ScalaRunTime$;
   3:	aload_0
   4:	invokevirtual	#87; //Method scala/runtime/ScalaRunTime$._toString:(Lscala/Product;)Ljava/lang/String;
   7:	areturn
  LineNumberTable: 
   line 102: 0


public int hashCode();
  Code:
   Stack=2, Locals=1, Args_size=1
   0:	getstatic	#83; //Field scala/runtime/ScalaRunTime$.MODULE$:Lscala/runtime/ScalaRunTime$;
   3:	aload_0
   4:	invokevirtual	#92; //Method scala/runtime/ScalaRunTime$._hashCode:(Lscala/Product;)I
   7:	ireturn
  LineNumberTable: 
   line 102: 0


public java.lang.String copy$default$1();
  Code:
   Stack=1, Locals=1, Args_size=1
   0:	aload_0
   1:	invokevirtual	#34; //Method value:()Ljava/lang/String;
   4:	areturn
  LineNumberTable: 
   line 102: 0


public scala.xml.dtd.IntDef copy(java.lang.String);
  Code:
   Stack=3, Locals=2, Args_size=2
   0:	new	#10; //class scala/xml/dtd/IntDef
   3:	dup
   4:	aload_1
   5:	invokespecial	#96; //Method "<init>":(Ljava/lang/String;)V
   8:	areturn
  LineNumberTable: 
   line 102: 0

  LocalVariableTable: 
   Start  Length  Slot  Name   Signature
   0      9      0    this       Lscala/xml/dtd/IntDef;
   0      9      1    value       Ljava/lang/String;


public scala.collection.mutable.StringBuilder buildString(scala.collection.mutable.StringBuilder);
  Code:
   Stack=3, Locals=2, Args_size=2
   0:	getstatic	#103; //Field scala/xml/Utility$.MODULE$:Lscala/xml/Utility$;
   3:	aload_0
   4:	invokevirtual	#34; //Method value:()Ljava/lang/String;
   7:	aload_1
   8:	invokevirtual	#107; //Method scala/xml/Utility$.appendQuoted:(Ljava/lang/String;Lscala/collection/mutable/StringBuilder;)Lscala/collection/mutable/StringBuilder;
   11:	areturn
  LineNumberTable: 
   line 124: 0

  LocalVariableTable: 
   Start  Length  Slot  Name   Signature
   0      12      0    this       Lscala/xml/dtd/IntDef;
   0      12      1    sb       Lscala/collection/mutable/StringBuilder;


public java.lang.String value();
  Code:
   Stack=1, Locals=1, Args_size=1
   0:	aload_0
   1:	getfield	#12; //Field value:Ljava/lang/String;
   4:	areturn
  LineNumberTable: 
   line 102: 0


public scala.collection.Iterator productElements();
  Code:
   Stack=1, Locals=1, Args_size=1
   0:	aload_0
   1:	invokestatic	#158; //Method scala/Product$class.productElements:(Lscala/Product;)Lscala/collection/Iterator;
   4:	areturn
  LineNumberTable: 
   line 102: 0


public scala.collection.Iterator productIterator();
  Code:
   Stack=1, Locals=1, Args_size=1
   0:	aload_0
   1:	invokestatic	#161; //Method scala/Product$class.productIterator:(Lscala/Product;)Lscala/collection/Iterator;
   4:	areturn
  LineNumberTable: 
   line 102: 0


}

