Compiled from "Decl.scala"
public class scala.xml.dtd.IntDef extends scala.xml.dtd.EntityDef implements scala.ScalaObject,scala.Product,java.io.Serializable
  SourceFile: "Decl.scala"
  ScalaSig: length = 0x3C2
   05 00 FFFFFF81 10 06 08 01 02 FFFFFF84 FFFFFF80 FFFFFF80 FFFFFF80 40 09 02 06
   49 6E 74 44 65 66 0A 02 03 04 01 03 64 74 64 0A
   02 05 06 01 03 78 6D 6C 0A 01 07 01 05 73 63 61
   6C 61 03 00 13 04 00 0A 0E 12 10 02 0B 0C 0D 01
   02 09 02 0D 02 02 09 45 6E 74 69 74 79 44 65 66
   10 02 0F 10 0D 01 06 09 02 11 06 02 0B 53 63 61
   6C 61 4F 62 6A 65 63 74 10 02 0F 13 09 02 14 06
   02 07 50 72 6F 64 75 63 74 08 08 16 00 FFFFFF82 FFFFFFCA FFFFFF80
   FFFFFF84 00 17 01 05 76 61 6C 75 65 15 01 18 10 02 19
   1C 0E 02 0F 1A 09 02 1B 06 01 06 50 72 65 64 65
   66 09 02 1D 1E 02 06 53 74 72 69 6E 67 0A 02 1B
   06 08 08 20 00 FFFFFF82 FFFFFF88 FFFFFFA0 FFFFFF80 04 18 01 06 76 61 6C
   75 65 20 08 05 22 00 FFFFFF84 00 23 01 06 3C 69 6E 69
   74 3E 14 02 24 25 10 02 0B 00 08 05 16 21 FFFFFFC0 00
   18 08 05 27 00 FFFFFF84 04 28 01 0D 76 61 6C 69 64 61
   74 65 56 61 6C 75 65 14 01 29 10 02 0F 2A 09 02
   2B 06 02 04 55 6E 69 74 08 05 2D 00 FFFFFF84 20 2E 01
   0B 62 75 69 6C 64 53 74 72 69 6E 67 14 02 2F 37
   10 02 30 35 0D 01 31 0A 02 32 33 01 07 6D 75 74
   61 62 6C 65 0A 02 34 06 01 0A 63 6F 6C 6C 65 63
   74 69 6F 6E 09 02 36 31 02 0D 53 74 72 69 6E 67
   42 75 69 6C 64 65 72 08 05 38 2C FFFFFFC0 00 2F 01 02
   73 62 08 07 3A 00 FFFFFF81 FFFFFF80 FFFFFF84 00 3B 01 04 63 6F 70
   79 14 02 24 3C 08 08 3D 16 39 FFFFFF90 FFFFFF80 FFFFFFC0 00 18 08
   07 3E 00 FFFFFF91 FFFFFF80 FFFFFF84 00 3F 01 0E 63 6F 70 79 24 64
   65 66 61 75 6C 74 24 31 15 01 40 2A 02 18 41 2B
   01 42 10 02 43 48 0D 01 44 0A 02 45 46 01 09 75
   6E 63 68 65 63 6B 65 64 0A 02 47 06 01 0A 61 6E
   6E 6F 74 61 74 69 6F 6E 09 02 49 44 02 11 75 6E
   63 68 65 63 6B 65 64 56 61 72 69 61 6E 63 65 08
   08 4B 00 FFFFFF84 FFFFFF80 FFFFFF80 FFFFFF84 20 4C 01 08 68 61 73 68 43
   6F 64 65 14 01 4D 10 02 0F 4E 09 02 4F 06 02 03
   49 6E 74 08 08 51 00 FFFFFF84 FFFFFF80 FFFFFF80 FFFFFF84 20 52 01 08 74
   6F 53 74 72 69 6E 67 14 01 18 08 08 54 00 FFFFFF84 FFFFFF80
   FFFFFF80 FFFFFF84 20 55 01 06 65 71 75 61 6C 73 14 02 56 59
   10 02 0F 57 09 02 58 06 02 07 42 6F 6F 6C 65 61
   6E 08 07 5A 53 FFFFFF81 FFFFFF80 FFFFFFC0 00 5B 01 03 78 24 31 10
   02 0F 5C 09 02 5D 06 02 03 41 6E 79 08 08 5F 00
   FFFFFF84 FFFFFF80 FFFFFF80 FFFFFF84 20 60 01 0D 70 72 6F 64 75 63 74 50
   72 65 66 69 78 15 01 61 10 02 62 67 0D 01 63 0A
   02 64 65 01 04 6C 61 6E 67 0A 01 66 01 04 6A 61
   76 61 09 02 1D 63 08 08 69 00 FFFFFF84 FFFFFF80 FFFFFF80 FFFFFF84 20 6A
   01 0C 70 72 6F 64 75 63 74 41 72 69 74 79 15 01
   4D 08 08 6C 00 FFFFFF84 FFFFFF80 FFFFFF80 FFFFFF84 20 6D 01 0E 70 72 6F
   64 75 63 74 45 6C 65 6D 65 6E 74 14 02 5B 6E 08
   07 5A 6B FFFFFF81 FFFFFF80 FFFFFFC0 00 4D 08 08 70 00 FFFFFF84 FFFFFF80 FFFFFF80 FFFFFF84
   20 71 01 08 63 61 6E 45 71 75 61 6C 14 02 56 72
   08 07 5A 6F FFFFFF81 FFFFFF80 FFFFFFC0 00 5B 28 02 00 74 10 02 0F
   75 09 02 76 06 02 0C 73 65 72 69 61 6C 69 7A 61
   62 6C 65 07 07 78 02 FFFFFF81 FFFFFF80 FFFFFF88 02 79 01 06 49 6E
   74 44 65 66 10 02 0B 7A 06 08 01 02 FFFFFF84 FFFFFF81 FFFFFF80 FFFFFF88
   02 7B 13 04 7A 7C 7F 0E 10 02 62 7D 09 02 7E 63
   02 06 4F 62 6A 65 63 74 10 05 0F FFFFFF81 00 18 24 09
   03 FFFFFF81 01 06 02 09 46 75 6E 63 74 69 6F 6E 31 08
   06 22 7A FFFFFF84 00 FFFFFF81 03 14 01 79 08 09 FFFFFF81 05 7A FFFFFF81
   FFFFFF80 FFFFFF84 40 FFFFFF81 06 01 05 61 70 70 6C 79 14 03 24 FFFFFF81
   07 08 06 16 FFFFFF81 04 FFFFFFC0 00 18 08 09 FFFFFF81 09 7A FFFFFF81 FFFFFF80
   FFFFFF84 40 FFFFFF81 0A 01 07 75 6E 61 70 70 6C 79 14 04 FFFFFF81
   0B FFFFFF81 0E 10 04 0F FFFFFF81 0C 18 09 03 FFFFFF81 0D 06 02 04
   53 6F 6D 65 08 07 FFFFFF81 0F FFFFFF81 08 FFFFFFC0 00 24 01 03 78
   24 30 
  minor version: 0
  major version: 49
  Constant pool:
Asciz	SourceFile;
Asciz	Decl.scala;
Asciz	andThen;
Asciz	(Lscala/Function1;)Lscala/Function1;;
Asciz	Code;
Asciz	scala/xml/dtd/IntDef$;
class	scala/xml/dtd/IntDef$
Asciz	MODULE$;
Asciz	Lscala/xml/dtd/IntDef$;;
NameAndType	MODULE$:Lscala/xml/dtd/IntDef$;
Field	scala/xml/dtd/IntDef$.MODULE$:Lscala/xml/dtd/IntDef$;
NameAndType	andThen:(Lscala/Function1;)Lscala/Function1;
Method	scala/xml/dtd/IntDef$.andThen:(Lscala/Function1;)Lscala/Function1;
Asciz	compose;
NameAndType	compose:(Lscala/Function1;)Lscala/Function1;
Method	scala/xml/dtd/IntDef$.compose:(Lscala/Function1;)Lscala/Function1;
Asciz	value;
Asciz	Ljava/lang/String;;
Asciz	<init>;
Asciz	(Ljava/lang/String;)V;
Asciz	LineNumberTable;
Asciz	scala/xml/dtd/IntDef;
class	scala/xml/dtd/IntDef
NameAndType	value:Ljava/lang/String;
Field	scala/xml/dtd/IntDef.value:Ljava/lang/String;
Asciz	scala/xml/dtd/EntityDef;
class	scala/xml/dtd/EntityDef
Asciz	()V;
NameAndType	"<init>":()V
Method	scala/xml/dtd/EntityDef."<init>":()V
Asciz	scala/Product$class;
class	scala/Product$class
Asciz	$init$;
Asciz	(Lscala/Product;)V;
NameAndType	$init$:(Lscala/Product;)V
Method	scala/Product$class.$init$:(Lscala/Product;)V
Asciz	validateValue;
NameAndType	validateValue:()V
Method	scala/xml/dtd/IntDef.validateValue:()V
Asciz	this;
Asciz	Lscala/xml/dtd/IntDef;;
Asciz	LocalVariableTable;
Asciz	gd8$1;
Asciz	(Ljava/lang/String;)Z;
Asciz	()Ljava/lang/String;;
NameAndType	value:()Ljava/lang/String;
Method	scala/xml/dtd/IntDef.value:()Ljava/lang/String;
Asciz	java/lang/Object;
class	java/lang/Object
Asciz	equals;
Asciz	(Ljava/lang/Object;)Z;
NameAndType	equals:(Ljava/lang/Object;)Z
Method	java/lang/Object.equals:(Ljava/lang/Object;)Z
Asciz	canEqual;
Asciz	productElement;
Asciz	(I)Ljava/lang/Object;;
Asciz	scala/MatchError;
class	scala/MatchError
Asciz	scala/runtime/BoxesRunTime;
class	scala/runtime/BoxesRunTime
Asciz	boxToInteger;
Asciz	(I)Ljava/lang/Integer;;
NameAndType	boxToInteger:(I)Ljava/lang/Integer;
Method	scala/runtime/BoxesRunTime.boxToInteger:(I)Ljava/lang/Integer;
Asciz	toString;
NameAndType	toString:()Ljava/lang/String;
Method	java/lang/Object.toString:()Ljava/lang/String;
NameAndType	"<init>":(Ljava/lang/String;)V
Method	scala/MatchError."<init>":(Ljava/lang/String;)V
Asciz	java/lang/IndexOutOfBoundsException;
class	java/lang/IndexOutOfBoundsException
Method	java/lang/IndexOutOfBoundsException."<init>":(Ljava/lang/String;)V
Asciz	productArity;
Asciz	()I;
Asciz	productPrefix;
Asciz	IntDef;
String	IntDef
NameAndType	gd8$1:(Ljava/lang/String;)Z
Method	scala/xml/dtd/IntDef.gd8$1:(Ljava/lang/String;)Z
Asciz	scala/Equals;
class	scala/Equals
NameAndType	canEqual:(Ljava/lang/Object;)Z
InterfaceMethod	scala/Equals.canEqual:(Ljava/lang/Object;)Z
Asciz	temp39;
Asciz	temp40;
Asciz	scala/runtime/ScalaRunTime$;
class	scala/runtime/ScalaRunTime$
Asciz	Lscala/runtime/ScalaRunTime$;;
NameAndType	MODULE$:Lscala/runtime/ScalaRunTime$;
Field	scala/runtime/ScalaRunTime$.MODULE$:Lscala/runtime/ScalaRunTime$;
Asciz	_toString;
Asciz	(Lscala/Product;)Ljava/lang/String;;
NameAndType	_toString:(Lscala/Product;)Ljava/lang/String;
Method	scala/runtime/ScalaRunTime$._toString:(Lscala/Product;)Ljava/lang/String;
Asciz	hashCode;
Asciz	_hashCode;
Asciz	(Lscala/Product;)I;
NameAndType	_hashCode:(Lscala/Product;)I
Method	scala/runtime/ScalaRunTime$._hashCode:(Lscala/Product;)I
Asciz	copy;
Asciz	(Ljava/lang/String;)Lscala/xml/dtd/IntDef;;
Method	scala/xml/dtd/IntDef."<init>":(Ljava/lang/String;)V
Asciz	buildString;
Asciz	(Lscala/collection/mutable/StringBuilder;)Lscala/collection/mutable/StringBuilder;;
Asciz	scala/xml/Utility$;
class	scala/xml/Utility$
Asciz	Lscala/xml/Utility$;;
NameAndType	MODULE$:Lscala/xml/Utility$;
Field	scala/xml/Utility$.MODULE$:Lscala/xml/Utility$;
Asciz	appendQuoted;
Asciz	(Ljava/lang/String;Lscala/collection/mutable/StringBuilder;)Lscala/collection/mutable/StringBuilder;;
NameAndType	appendQuoted:(Ljava/lang/String;Lscala/collection/mutable/StringBuilder;)Lscala/collection/mutable/StringBuilder;
Method	scala/xml/Utility$.appendQuoted:(Ljava/lang/String;Lscala/collection/mutable/StringBuilder;)Lscala/collection/mutable/StringBuilder;
Asciz	sb;
Asciz	Lscala/collection/mutable/StringBuilder;;
int	37;
Asciz	java/lang/String;
class	java/lang/String
Asciz	indexOf;
Asciz	(I)I;
NameAndType	indexOf:(I)I
Method	java/lang/String.indexOf:(I)I
int	59;
Asciz	(II)I;
NameAndType	indexOf:(II)I
Method	java/lang/String.indexOf:(II)I
Asciz	java/lang/IllegalArgumentException;
class	java/lang/IllegalArgumentException
Asciz	no % allowed in entity value, except for parameter-entity-references;
String	no % allowed in entity value, except for parameter-entity-references
Method	java/lang/IllegalArgumentException."<init>":(Ljava/lang/String;)V
Asciz	substring;
Asciz	(II)Ljava/lang/String;;
NameAndType	substring:(II)Ljava/lang/String;
Method	java/lang/String.substring:(II)Ljava/lang/String;
Asciz	scala/xml/parsing/TokenTests$class;
class	scala/xml/parsing/TokenTests$class
Asciz	isName;
Asciz	(Lscala/xml/parsing/TokenTests;Ljava/lang/String;)Z;
NameAndType	isName:(Lscala/xml/parsing/TokenTests;Ljava/lang/String;)Z
Method	scala/xml/parsing/TokenTests$class.isName:(Lscala/xml/parsing/TokenTests;Ljava/lang/String;)Z
Asciz	length;
NameAndType	length:()I
Method	java/lang/String.length:()I
Asciz	scala/collection/mutable/StringBuilder;
class	scala/collection/mutable/StringBuilder
Method	scala/collection/mutable/StringBuilder."<init>":()V
Asciz	interal entity def: \";
String	interal entity def: \"
Asciz	append;
Asciz	(Ljava/lang/Object;)Lscala/collection/mutable/StringBuilder;;
NameAndType	append:(Ljava/lang/Object;)Lscala/collection/mutable/StringBuilder;
Method	scala/collection/mutable/StringBuilder.append:(Ljava/lang/Object;)Lscala/collection/mutable/StringBuilder;
Asciz	\" must be an XML Name;
String	\" must be an XML Name
Method	scala/collection/mutable/StringBuilder.toString:()Ljava/lang/String;
Asciz	iz;
Asciz	I;
Asciz	tmp;
Asciz	ix;
Asciz	n;
Asciz	copy$default$1;
Asciz	productElements;
Asciz	()Lscala/collection/Iterator;;
Asciz	(Lscala/Product;)Lscala/collection/Iterator;;
NameAndType	productElements:(Lscala/Product;)Lscala/collection/Iterator;
Method	scala/Product$class.productElements:(Lscala/Product;)Lscala/collection/Iterator;
Asciz	productIterator;
NameAndType	productIterator:(Lscala/Product;)Lscala/collection/Iterator;
Method	scala/Product$class.productIterator:(Lscala/Product;)Lscala/collection/Iterator;
Asciz	ScalaSig;
Asciz	scala/ScalaObject;
class	scala/ScalaObject
Asciz	scala/Product;
class	scala/Product
Asciz	java/io/Serializable;
class	java/io/Serializable

{
private final java.lang.String value;
  Signature: Ljava/lang/String;

public static final scala.Function1 andThen(scala.Function1);
  Signature: (Lscala/Function1;)Lscala/Function1;
  Code:
   Stack=2, Locals=1, Args_size=1
	getstatic	Field scala/xml/dtd/IntDef$.MODULE$:Lscala/xml/dtd/IntDef$;
	aload_0
	invokevirtual	Method scala/xml/dtd/IntDef$.andThen:(Lscala/Function1;)Lscala/Function1;
	areturn
  Labels:

public static final scala.Function1 compose(scala.Function1);
  Signature: (Lscala/Function1;)Lscala/Function1;
  Code:
   Stack=2, Locals=1, Args_size=1
	getstatic	Field scala/xml/dtd/IntDef$.MODULE$:Lscala/xml/dtd/IntDef$;
	aload_0
	invokevirtual	Method scala/xml/dtd/IntDef$.compose:(Lscala/Function1;)Lscala/Function1;
	areturn
  Labels:

public scala.xml.dtd.IntDef(java.lang.String);
  Signature: (Ljava/lang/String;)V
  Code:
   Stack=2, Locals=2, Args_size=2
	aload_0
	aload_1
	putfield	Field value:Ljava/lang/String;
	aload_0
	invokespecial	Method scala/xml/dtd/EntityDef."<init>":()V
	aload_0
	invokestatic	Method scala/Product$class.$init$:(Lscala/Product;)V
	aload_0
	invokespecial	Method validateValue:()V
	return
  Labels:
  LocalVariableTable: 
   Start  Length  Slot  Name   Signature
   0      18      0    this       Lscala/xml/dtd/IntDef;
   0      18      1    value       Ljava/lang/String;


private final boolean gd8$1(java.lang.String);
  Signature: (Ljava/lang/String;)Z
  Code:
   Stack=2, Locals=3, Args_size=2
	aload_1
	aload_0
	invokevirtual	Method value:()Ljava/lang/String;
	astore_2
	dup
	ifnonnull	l1 // aload_2
	pop
	aload_2
	ifnull	l2 // iconst_1
	goto	l3 // iconst_0
l1	aload_2
	invokevirtual	Method java/lang/Object.equals:(Ljava/lang/Object;)Z
	ifeq	l3 // iconst_0
l2	iconst_1
	goto	l4 // ireturn
l3	iconst_0
l4	ireturn
  Labels:
   	l1 = 18 // aload_2
   	l2 = 25 // iconst_1
   	l3 = 29 // iconst_0
   	l4 = 30 // ireturn

public boolean canEqual(java.lang.Object);
  Signature: (Ljava/lang/Object;)Z
  Code:
   Stack=1, Locals=2, Args_size=2
	aload_1
	instanceof	class scala/xml/dtd/IntDef
	ireturn
  Labels:

public java.lang.Object productElement(int);
  Signature: (I)Ljava/lang/Object;
  Code:
   Stack=3, Locals=2, Args_size=2
	iload_1
	iconst_0
	if_icmpne	l1 // iconst_1
	iconst_1
	ifeq	l2 // new
	aload_0
	invokevirtual	Method value:()Ljava/lang/String;
	areturn
l2	new	class scala/MatchError
	dup
	iload_1
	invokestatic	Method scala/runtime/BoxesRunTime.boxToInteger:(I)Ljava/lang/Integer;
	invokevirtual	Method java/lang/Object.toString:()Ljava/lang/String;
	invokespecial	Method scala/MatchError."<init>":(Ljava/lang/String;)V
	athrow
l1	iconst_1
	ifeq	l3 // new
	new	class java/lang/IndexOutOfBoundsException
	dup
	iload_1
	invokestatic	Method scala/runtime/BoxesRunTime.boxToInteger:(I)Ljava/lang/Integer;
	invokevirtual	Method java/lang/Object.toString:()Ljava/lang/String;
	invokespecial	Method java/lang/IndexOutOfBoundsException."<init>":(Ljava/lang/String;)V
	athrow
l3	new	class scala/MatchError
	dup
	iload_1
	invokestatic	Method scala/runtime/BoxesRunTime.boxToInteger:(I)Ljava/lang/Integer;
	invokevirtual	Method java/lang/Object.toString:()Ljava/lang/String;
	invokespecial	Method scala/MatchError."<init>":(Ljava/lang/String;)V
	athrow
  Labels:
   	l2 = 14 // new
   	l1 = 29 // iconst_1
   	l3 = 48 // new

public int productArity();
  Signature: ()I
  Code:
   Stack=1, Locals=1, Args_size=1
	iconst_1
	ireturn
  Labels:

public java.lang.String productPrefix();
  Signature: ()Ljava/lang/String;
  Code:
   Stack=1, Locals=1, Args_size=1
	ldc	String IntDef
	areturn
  Labels:

public boolean equals(java.lang.Object);
  Signature: (Ljava/lang/Object;)Z
  Code:
   Stack=3, Locals=4, Args_size=2
	aload_0
	aload_1
	if_acmpeq	l1 // iconst_1
	aload_1
	instanceof	class scala/xml/dtd/IntDef
	ifeq	l2 // iconst_1
	aload_1
	checkcast	class scala/xml/dtd/IntDef
	astore_2
	aload_2
	invokevirtual	Method value:()Ljava/lang/String;
	astore_3
	aload_0
	aload_3
	invokespecial	Method gd8$1:(Ljava/lang/String;)Z
	ifeq	l3 // iconst_1
	aload_1
	checkcast	class scala/xml/dtd/IntDef
	aload_0
	invokeinterface	InterfaceMethod scala/Equals.canEqual:(Ljava/lang/Object;)Z
	goto	l4 // ifeq
l3	iconst_1
	ifeq	l5 // new
	iconst_0
	goto	l4 // ifeq
l5	new	class scala/MatchError
	dup
	aload_1
	invokevirtual	Method java/lang/Object.toString:()Ljava/lang/String;
	invokespecial	Method scala/MatchError."<init>":(Ljava/lang/String;)V
	athrow
l2	iconst_1
	ifeq	l6 // new
	iconst_0
l4	ifeq	l7 // iconst_0
l1	iconst_1
	goto	l8 // ireturn
l7	iconst_0
l8	ireturn
l6	new	class scala/MatchError
	dup
	aload_1
	invokevirtual	Method java/lang/Object.toString:()Ljava/lang/String;
	invokespecial	Method scala/MatchError."<init>":(Ljava/lang/String;)V
	athrow
  Labels:
   	l3 = 43 // iconst_1
   	l5 = 51 // new
   	l2 = 63 // iconst_1
   	l4 = 68 // ifeq
   	l1 = 71 // iconst_1
   	l7 = 75 // iconst_0
   	l8 = 76 // ireturn
   	l6 = 77 // new
  LocalVariableTable: 
   Start  Length  Slot  Name   Signature
   0      89      0    this       Lscala/xml/dtd/IntDef;
   17      46      2    temp39       Lscala/xml/dtd/IntDef;
   22      41      3    temp40       Ljava/lang/String;


public java.lang.String toString();
  Signature: ()Ljava/lang/String;
  Code:
   Stack=2, Locals=1, Args_size=1
	getstatic	Field scala/runtime/ScalaRunTime$.MODULE$:Lscala/runtime/ScalaRunTime$;
	aload_0
	invokevirtual	Method scala/runtime/ScalaRunTime$._toString:(Lscala/Product;)Ljava/lang/String;
	areturn
  Labels:

public int hashCode();
  Signature: ()I
  Code:
   Stack=2, Locals=1, Args_size=1
	getstatic	Field scala/runtime/ScalaRunTime$.MODULE$:Lscala/runtime/ScalaRunTime$;
	aload_0
	invokevirtual	Method scala/runtime/ScalaRunTime$._hashCode:(Lscala/Product;)I
	ireturn
  Labels:

public scala.xml.dtd.IntDef copy(java.lang.String);
  Signature: (Ljava/lang/String;)Lscala/xml/dtd/IntDef;
  Code:
   Stack=3, Locals=2, Args_size=2
	new	class scala/xml/dtd/IntDef
	dup
	aload_1
	invokespecial	Method "<init>":(Ljava/lang/String;)V
	areturn
  Labels:
  LocalVariableTable: 
   Start  Length  Slot  Name   Signature
   0      9      0    this       Lscala/xml/dtd/IntDef;
   0      9      1    value       Ljava/lang/String;


public scala.collection.mutable.StringBuilder buildString(scala.collection.mutable.StringBuilder);
  Signature: (Lscala/collection/mutable/StringBuilder;)Lscala/collection/mutable/StringBuilder;
  Code:
   Stack=3, Locals=2, Args_size=2
	getstatic	Field scala/xml/Utility$.MODULE$:Lscala/xml/Utility$;
	aload_0
	invokevirtual	Method value:()Ljava/lang/String;
	aload_1
	invokevirtual	Method scala/xml/Utility$.appendQuoted:(Ljava/lang/String;Lscala/collection/mutable/StringBuilder;)Lscala/collection/mutable/StringBuilder;
	areturn
  Labels:
  LocalVariableTable: 
   Start  Length  Slot  Name   Signature
   0      12      0    this       Lscala/xml/dtd/IntDef;
   0      12      1    sb       Lscala/collection/mutable/StringBuilder;


private void validateValue();
  Signature: ()V
  Code:
   Stack=4, Locals=6, Args_size=1
	aload_0
	invokevirtual	Method value:()Ljava/lang/String;
	astore_3
	aload_3
	ldc	int 37
	invokevirtual	Method java/lang/String.indexOf:(I)I
	istore	4
l4	iload	4
	iconst_m1
	if_icmpeq	l1 // return
	aload_3
	ldc	int 59
	iload	4
	invokevirtual	Method java/lang/String.indexOf:(II)I
	istore_2
	iload_2
	iconst_m1
	if_icmpne	l2 // aload_3
	iload_2
	iload	4
	iconst_1
	iadd
	if_icmpne	l2 // aload_3
	new	class java/lang/IllegalArgumentException
	dup
	ldc	String no % allowed in entity value, except for parameter-entity-references
	invokespecial	Method java/lang/IllegalArgumentException."<init>":(Ljava/lang/String;)V
	athrow
l2	aload_3
	iload	4
	iload_2
	invokevirtual	Method java/lang/String.substring:(II)Ljava/lang/String;
	astore	5
	getstatic	Field scala/xml/Utility$.MODULE$:Lscala/xml/Utility$;
	astore_1
	aload_1
	aload	5
	invokestatic	Method scala/xml/parsing/TokenTests$class.isName:(Lscala/xml/parsing/TokenTests;Ljava/lang/String;)Z
	ifeq	l3 // new
	aload_3
	iload_2
	iconst_1
	iadd
	aload_3
	invokevirtual	Method java/lang/String.length:()I
	invokevirtual	Method java/lang/String.substring:(II)Ljava/lang/String;
	astore_3
	aload_3
	ldc	int 37
	invokevirtual	Method java/lang/String.indexOf:(I)I
	istore	4
	goto	l4 // iload
l3	new	class java/lang/IllegalArgumentException
	dup
	new	class scala/collection/mutable/StringBuilder
	dup
	invokespecial	Method scala/collection/mutable/StringBuilder."<init>":()V
	ldc	String interal entity def: \"
	invokevirtual	Method scala/collection/mutable/StringBuilder.append:(Ljava/lang/Object;)Lscala/collection/mutable/StringBuilder;
	aload	5
	invokevirtual	Method scala/collection/mutable/StringBuilder.append:(Ljava/lang/Object;)Lscala/collection/mutable/StringBuilder;
	ldc	String \" must be an XML Name
	invokevirtual	Method scala/collection/mutable/StringBuilder.append:(Ljava/lang/Object;)Lscala/collection/mutable/StringBuilder;
	invokevirtual	Method scala/collection/mutable/StringBuilder.toString:()Ljava/lang/String;
	invokespecial	Method java/lang/IllegalArgumentException."<init>":(Ljava/lang/String;)V
	athrow
l1	return
  Labels:
   	l4 = 13 // iload
   	l2 = 51 // aload_3
   	l3 = 96 // new
   	l1 = 129 // return
  LocalVariableTable: 
   Start  Length  Slot  Name   Signature
   0      130      0    this       Lscala/xml/dtd/IntDef;
   28      101      2    iz       I
   5      125      3    tmp       Ljava/lang/String;
   13      117      4    ix       I
   60      33      5    n       Ljava/lang/String;
   96      33      5    n       Ljava/lang/String;


public java.lang.String value();
  Signature: ()Ljava/lang/String;
  Code:
   Stack=1, Locals=1, Args_size=1
	aload_0
	getfield	Field value:Ljava/lang/String;
	areturn
  Labels:

public java.lang.String copy$default$1();
  Signature: ()Ljava/lang/String;
  Code:
   Stack=1, Locals=1, Args_size=1
	aload_0
	invokevirtual	Method value:()Ljava/lang/String;
	areturn
  Labels:

public scala.collection.Iterator productElements();
  Signature: ()Lscala/collection/Iterator;
  Code:
   Stack=1, Locals=1, Args_size=1
	aload_0
	invokestatic	Method scala/Product$class.productElements:(Lscala/Product;)Lscala/collection/Iterator;
	areturn
  Labels:

public scala.collection.Iterator productIterator();
  Signature: ()Lscala/collection/Iterator;
  Code:
   Stack=1, Locals=1, Args_size=1
	aload_0
	invokestatic	Method scala/Product$class.productIterator:(Lscala/Product;)Lscala/collection/Iterator;
	areturn
  Labels:

}

